simulator lang=spice
.lib '../../technology_models/tech_wrapper.lib' tt
.OPTIONS METHOD=trap
.TEMP 30

simulator lang=spectre
include "../../technology_models/monte_carlo_models.scs"
include "../../ArchitectureDesign/SPICE/CMOSlogic.scs"
include "decoder2.sp"
parameters enableMismatch=0
ana tran step=1e-12 stop=2e-08
option1 options rawfmt = psfascii
//option2 options dc_pivot_check = yes

vin in vss vsource type=pwl wave=[0 0 1e-09 0 1.1e-09 1]
ven en vss vsource type=pwl wave=[0 0 1e-09 0 1.1e-09 1]
vgnd vss 0 vsource type=dc dc=0


parameters PWmin = 100n                         //MinimalTransistorWidth
parameters PLmin = 45n                          //MinimalTransistorLenght

vvdd_4 vdd_4 0 vsource type=dc dc=1
xdecoderfour (vss in vss vss  en out_4_0 out_4_1 out_4_2 out_4_3 out_4_4 out_4_5 out_4_6 out_4_7 out_4_8 out_4_9 out_4_10 out_4_11 out_4_12 out_4_13 out_4_14 out_4_15 vdd_4 vss vss vdd_4) decoderfour
//cPar_4_0 out_4_0 vss capacitor c=0.18e-15
xinv_4_0 out_4_0 out2_4_0 vdd vss vdd vss inverter
//cPar_4_1 out_4_1 vss capacitor c=0.18e-15
xinv_4_1 out_4_1 out2_4_1 vdd vss vdd vss inverter
//cPar_4_2 out_4_2 vss capacitor c=0.18e-15
xinv_4_2 out_4_2 out2_4_2 vdd vss vdd vss inverter
//cPar_4_3 out_4_3 vss capacitor c=0.18e-15
xinv_4_3 out_4_3 out2_4_3 vdd vss vdd vss inverter
//cPar_4_4 out_4_4 vss capacitor c=0.18e-15
xinv_4_4 out_4_4 out2_4_4 vdd vss vdd vss inverter
//cPar_4_5 out_4_5 vss capacitor c=0.18e-15
xinv_4_5 out_4_5 out2_4_5 vdd vss vdd vss inverter
//cPar_4_6 out_4_6 vss capacitor c=0.18e-15
xinv_4_6 out_4_6 out2_4_6 vdd vss vdd vss inverter
//cPar_4_7 out_4_7 vss capacitor c=0.18e-15
xinv_4_7 out_4_7 out2_4_7 vdd vss vdd vss inverter
//cPar_4_8 out_4_8 vss capacitor c=0.18e-15
xinv_4_8 out_4_8 out2_4_8 vdd vss vdd vss inverter
//cPar_4_9 out_4_9 vss capacitor c=0.18e-15
xinv_4_9 out_4_9 out2_4_9 vdd vss vdd vss inverter
//cPar_4_10 out_4_10 vss capacitor c=0.18e-15
xinv_4_10 out_4_10 out2_4_10 vdd vss vdd vss inverter
//cPar_4_11 out_4_11 vss capacitor c=0.18e-15
xinv_4_11 out_4_11 out2_4_11 vdd vss vdd vss inverter
//cPar_4_12 out_4_12 vss capacitor c=0.18e-15
xinv_4_12 out_4_12 out2_4_12 vdd vss vdd vss inverter
//cPar_4_13 out_4_13 vss capacitor c=0.18e-15
xinv_4_13 out_4_13 out2_4_13 vdd vss vdd vss inverter
//cPar_4_14 out_4_14 vss capacitor c=0.18e-15
xinv_4_14 out_4_14 out2_4_14 vdd vss vdd vss inverter
//cPar_4_15 out_4_15 vss capacitor c=0.18e-15
xinv_4_15 out_4_15 out2_4_15 vdd vss vdd vss inverter
save out_4_2
save out_4_2
save vvdd_4:p
vvdd_5 vdd_5 0 vsource type=dc dc=1
xdecoderfive (vss in vss vss vss  en out_5_0 out_5_1 out_5_2 out_5_3 out_5_4 out_5_5 out_5_6 out_5_7 out_5_8 out_5_9 out_5_10 out_5_11 out_5_12 out_5_13 out_5_14 out_5_15 out_5_16 out_5_17 out_5_18 out_5_19 out_5_20 out_5_21 out_5_22 out_5_23 out_5_24 out_5_25 out_5_26 out_5_27 out_5_28 out_5_29 out_5_30 out_5_31 vdd_5 vss vss vdd_5) decoderfive
//cPar_5_0 out_5_0 vss capacitor c=0.18e-15
xinv_5_0 out_5_0 out2_5_0 vdd vss vdd vss inverter
//cPar_5_1 out_5_1 vss capacitor c=0.18e-15
xinv_5_1 out_5_1 out2_5_1 vdd vss vdd vss inverter
//cPar_5_2 out_5_2 vss capacitor c=0.18e-15
xinv_5_2 out_5_2 out2_5_2 vdd vss vdd vss inverter
//cPar_5_3 out_5_3 vss capacitor c=0.18e-15
xinv_5_3 out_5_3 out2_5_3 vdd vss vdd vss inverter
//cPar_5_4 out_5_4 vss capacitor c=0.18e-15
xinv_5_4 out_5_4 out2_5_4 vdd vss vdd vss inverter
//cPar_5_5 out_5_5 vss capacitor c=0.18e-15
xinv_5_5 out_5_5 out2_5_5 vdd vss vdd vss inverter
//cPar_5_6 out_5_6 vss capacitor c=0.18e-15
xinv_5_6 out_5_6 out2_5_6 vdd vss vdd vss inverter
//cPar_5_7 out_5_7 vss capacitor c=0.18e-15
xinv_5_7 out_5_7 out2_5_7 vdd vss vdd vss inverter
//cPar_5_8 out_5_8 vss capacitor c=0.18e-15
xinv_5_8 out_5_8 out2_5_8 vdd vss vdd vss inverter
//cPar_5_9 out_5_9 vss capacitor c=0.18e-15
xinv_5_9 out_5_9 out2_5_9 vdd vss vdd vss inverter
//cPar_5_10 out_5_10 vss capacitor c=0.18e-15
xinv_5_10 out_5_10 out2_5_10 vdd vss vdd vss inverter
//cPar_5_11 out_5_11 vss capacitor c=0.18e-15
xinv_5_11 out_5_11 out2_5_11 vdd vss vdd vss inverter
//cPar_5_12 out_5_12 vss capacitor c=0.18e-15
xinv_5_12 out_5_12 out2_5_12 vdd vss vdd vss inverter
//cPar_5_13 out_5_13 vss capacitor c=0.18e-15
xinv_5_13 out_5_13 out2_5_13 vdd vss vdd vss inverter
//cPar_5_14 out_5_14 vss capacitor c=0.18e-15
xinv_5_14 out_5_14 out2_5_14 vdd vss vdd vss inverter
//cPar_5_15 out_5_15 vss capacitor c=0.18e-15
xinv_5_15 out_5_15 out2_5_15 vdd vss vdd vss inverter
//cPar_5_16 out_5_16 vss capacitor c=0.18e-15
xinv_5_16 out_5_16 out2_5_16 vdd vss vdd vss inverter
//cPar_5_17 out_5_17 vss capacitor c=0.18e-15
xinv_5_17 out_5_17 out2_5_17 vdd vss vdd vss inverter
//cPar_5_18 out_5_18 vss capacitor c=0.18e-15
xinv_5_18 out_5_18 out2_5_18 vdd vss vdd vss inverter
//cPar_5_19 out_5_19 vss capacitor c=0.18e-15
xinv_5_19 out_5_19 out2_5_19 vdd vss vdd vss inverter
//cPar_5_20 out_5_20 vss capacitor c=0.18e-15
xinv_5_20 out_5_20 out2_5_20 vdd vss vdd vss inverter
//cPar_5_21 out_5_21 vss capacitor c=0.18e-15
xinv_5_21 out_5_21 out2_5_21 vdd vss vdd vss inverter
//cPar_5_22 out_5_22 vss capacitor c=0.18e-15
xinv_5_22 out_5_22 out2_5_22 vdd vss vdd vss inverter
//cPar_5_23 out_5_23 vss capacitor c=0.18e-15
xinv_5_23 out_5_23 out2_5_23 vdd vss vdd vss inverter
//cPar_5_24 out_5_24 vss capacitor c=0.18e-15
xinv_5_24 out_5_24 out2_5_24 vdd vss vdd vss inverter
//cPar_5_25 out_5_25 vss capacitor c=0.18e-15
xinv_5_25 out_5_25 out2_5_25 vdd vss vdd vss inverter
//cPar_5_26 out_5_26 vss capacitor c=0.18e-15
xinv_5_26 out_5_26 out2_5_26 vdd vss vdd vss inverter
//cPar_5_27 out_5_27 vss capacitor c=0.18e-15
xinv_5_27 out_5_27 out2_5_27 vdd vss vdd vss inverter
//cPar_5_28 out_5_28 vss capacitor c=0.18e-15
xinv_5_28 out_5_28 out2_5_28 vdd vss vdd vss inverter
//cPar_5_29 out_5_29 vss capacitor c=0.18e-15
xinv_5_29 out_5_29 out2_5_29 vdd vss vdd vss inverter
//cPar_5_30 out_5_30 vss capacitor c=0.18e-15
xinv_5_30 out_5_30 out2_5_30 vdd vss vdd vss inverter
//cPar_5_31 out_5_31 vss capacitor c=0.18e-15
xinv_5_31 out_5_31 out2_5_31 vdd vss vdd vss inverter
save out_5_2
save out_5_2
save vvdd_5:p
vvdd_6 vdd_6 0 vsource type=dc dc=1
xdecodersix (vss in vss vss vss vss  en out_6_0 out_6_1 out_6_2 out_6_3 out_6_4 out_6_5 out_6_6 out_6_7 out_6_8 out_6_9 out_6_10 out_6_11 out_6_12 out_6_13 out_6_14 out_6_15 out_6_16 out_6_17 out_6_18 out_6_19 out_6_20 out_6_21 out_6_22 out_6_23 out_6_24 out_6_25 out_6_26 out_6_27 out_6_28 out_6_29 out_6_30 out_6_31 out_6_32 out_6_33 out_6_34 out_6_35 out_6_36 out_6_37 out_6_38 out_6_39 out_6_40 out_6_41 out_6_42 out_6_43 out_6_44 out_6_45 out_6_46 out_6_47 out_6_48 out_6_49 out_6_50 out_6_51 out_6_52 out_6_53 out_6_54 out_6_55 out_6_56 out_6_57 out_6_58 out_6_59 out_6_60 out_6_61 out_6_62 out_6_63 vdd_6 vss vss vdd_6) decodersix
//cPar_6_0 out_6_0 vss capacitor c=0.18e-15
xinv_6_0 out_6_0 out2_6_0 vdd vss vdd vss inverter
//cPar_6_1 out_6_1 vss capacitor c=0.18e-15
xinv_6_1 out_6_1 out2_6_1 vdd vss vdd vss inverter
//cPar_6_2 out_6_2 vss capacitor c=0.18e-15
xinv_6_2 out_6_2 out2_6_2 vdd vss vdd vss inverter
//cPar_6_3 out_6_3 vss capacitor c=0.18e-15
xinv_6_3 out_6_3 out2_6_3 vdd vss vdd vss inverter
//cPar_6_4 out_6_4 vss capacitor c=0.18e-15
xinv_6_4 out_6_4 out2_6_4 vdd vss vdd vss inverter
//cPar_6_5 out_6_5 vss capacitor c=0.18e-15
xinv_6_5 out_6_5 out2_6_5 vdd vss vdd vss inverter
//cPar_6_6 out_6_6 vss capacitor c=0.18e-15
xinv_6_6 out_6_6 out2_6_6 vdd vss vdd vss inverter
//cPar_6_7 out_6_7 vss capacitor c=0.18e-15
xinv_6_7 out_6_7 out2_6_7 vdd vss vdd vss inverter
//cPar_6_8 out_6_8 vss capacitor c=0.18e-15
xinv_6_8 out_6_8 out2_6_8 vdd vss vdd vss inverter
//cPar_6_9 out_6_9 vss capacitor c=0.18e-15
xinv_6_9 out_6_9 out2_6_9 vdd vss vdd vss inverter
//cPar_6_10 out_6_10 vss capacitor c=0.18e-15
xinv_6_10 out_6_10 out2_6_10 vdd vss vdd vss inverter
//cPar_6_11 out_6_11 vss capacitor c=0.18e-15
xinv_6_11 out_6_11 out2_6_11 vdd vss vdd vss inverter
//cPar_6_12 out_6_12 vss capacitor c=0.18e-15
xinv_6_12 out_6_12 out2_6_12 vdd vss vdd vss inverter
//cPar_6_13 out_6_13 vss capacitor c=0.18e-15
xinv_6_13 out_6_13 out2_6_13 vdd vss vdd vss inverter
//cPar_6_14 out_6_14 vss capacitor c=0.18e-15
xinv_6_14 out_6_14 out2_6_14 vdd vss vdd vss inverter
//cPar_6_15 out_6_15 vss capacitor c=0.18e-15
xinv_6_15 out_6_15 out2_6_15 vdd vss vdd vss inverter
//cPar_6_16 out_6_16 vss capacitor c=0.18e-15
xinv_6_16 out_6_16 out2_6_16 vdd vss vdd vss inverter
//cPar_6_17 out_6_17 vss capacitor c=0.18e-15
xinv_6_17 out_6_17 out2_6_17 vdd vss vdd vss inverter
//cPar_6_18 out_6_18 vss capacitor c=0.18e-15
xinv_6_18 out_6_18 out2_6_18 vdd vss vdd vss inverter
//cPar_6_19 out_6_19 vss capacitor c=0.18e-15
xinv_6_19 out_6_19 out2_6_19 vdd vss vdd vss inverter
//cPar_6_20 out_6_20 vss capacitor c=0.18e-15
xinv_6_20 out_6_20 out2_6_20 vdd vss vdd vss inverter
//cPar_6_21 out_6_21 vss capacitor c=0.18e-15
xinv_6_21 out_6_21 out2_6_21 vdd vss vdd vss inverter
//cPar_6_22 out_6_22 vss capacitor c=0.18e-15
xinv_6_22 out_6_22 out2_6_22 vdd vss vdd vss inverter
//cPar_6_23 out_6_23 vss capacitor c=0.18e-15
xinv_6_23 out_6_23 out2_6_23 vdd vss vdd vss inverter
//cPar_6_24 out_6_24 vss capacitor c=0.18e-15
xinv_6_24 out_6_24 out2_6_24 vdd vss vdd vss inverter
//cPar_6_25 out_6_25 vss capacitor c=0.18e-15
xinv_6_25 out_6_25 out2_6_25 vdd vss vdd vss inverter
//cPar_6_26 out_6_26 vss capacitor c=0.18e-15
xinv_6_26 out_6_26 out2_6_26 vdd vss vdd vss inverter
//cPar_6_27 out_6_27 vss capacitor c=0.18e-15
xinv_6_27 out_6_27 out2_6_27 vdd vss vdd vss inverter
//cPar_6_28 out_6_28 vss capacitor c=0.18e-15
xinv_6_28 out_6_28 out2_6_28 vdd vss vdd vss inverter
//cPar_6_29 out_6_29 vss capacitor c=0.18e-15
xinv_6_29 out_6_29 out2_6_29 vdd vss vdd vss inverter
//cPar_6_30 out_6_30 vss capacitor c=0.18e-15
xinv_6_30 out_6_30 out2_6_30 vdd vss vdd vss inverter
//cPar_6_31 out_6_31 vss capacitor c=0.18e-15
xinv_6_31 out_6_31 out2_6_31 vdd vss vdd vss inverter
//cPar_6_32 out_6_32 vss capacitor c=0.18e-15
xinv_6_32 out_6_32 out2_6_32 vdd vss vdd vss inverter
//cPar_6_33 out_6_33 vss capacitor c=0.18e-15
xinv_6_33 out_6_33 out2_6_33 vdd vss vdd vss inverter
//cPar_6_34 out_6_34 vss capacitor c=0.18e-15
xinv_6_34 out_6_34 out2_6_34 vdd vss vdd vss inverter
//cPar_6_35 out_6_35 vss capacitor c=0.18e-15
xinv_6_35 out_6_35 out2_6_35 vdd vss vdd vss inverter
//cPar_6_36 out_6_36 vss capacitor c=0.18e-15
xinv_6_36 out_6_36 out2_6_36 vdd vss vdd vss inverter
//cPar_6_37 out_6_37 vss capacitor c=0.18e-15
xinv_6_37 out_6_37 out2_6_37 vdd vss vdd vss inverter
//cPar_6_38 out_6_38 vss capacitor c=0.18e-15
xinv_6_38 out_6_38 out2_6_38 vdd vss vdd vss inverter
//cPar_6_39 out_6_39 vss capacitor c=0.18e-15
xinv_6_39 out_6_39 out2_6_39 vdd vss vdd vss inverter
//cPar_6_40 out_6_40 vss capacitor c=0.18e-15
xinv_6_40 out_6_40 out2_6_40 vdd vss vdd vss inverter
//cPar_6_41 out_6_41 vss capacitor c=0.18e-15
xinv_6_41 out_6_41 out2_6_41 vdd vss vdd vss inverter
//cPar_6_42 out_6_42 vss capacitor c=0.18e-15
xinv_6_42 out_6_42 out2_6_42 vdd vss vdd vss inverter
//cPar_6_43 out_6_43 vss capacitor c=0.18e-15
xinv_6_43 out_6_43 out2_6_43 vdd vss vdd vss inverter
//cPar_6_44 out_6_44 vss capacitor c=0.18e-15
xinv_6_44 out_6_44 out2_6_44 vdd vss vdd vss inverter
//cPar_6_45 out_6_45 vss capacitor c=0.18e-15
xinv_6_45 out_6_45 out2_6_45 vdd vss vdd vss inverter
//cPar_6_46 out_6_46 vss capacitor c=0.18e-15
xinv_6_46 out_6_46 out2_6_46 vdd vss vdd vss inverter
//cPar_6_47 out_6_47 vss capacitor c=0.18e-15
xinv_6_47 out_6_47 out2_6_47 vdd vss vdd vss inverter
//cPar_6_48 out_6_48 vss capacitor c=0.18e-15
xinv_6_48 out_6_48 out2_6_48 vdd vss vdd vss inverter
//cPar_6_49 out_6_49 vss capacitor c=0.18e-15
xinv_6_49 out_6_49 out2_6_49 vdd vss vdd vss inverter
//cPar_6_50 out_6_50 vss capacitor c=0.18e-15
xinv_6_50 out_6_50 out2_6_50 vdd vss vdd vss inverter
//cPar_6_51 out_6_51 vss capacitor c=0.18e-15
xinv_6_51 out_6_51 out2_6_51 vdd vss vdd vss inverter
//cPar_6_52 out_6_52 vss capacitor c=0.18e-15
xinv_6_52 out_6_52 out2_6_52 vdd vss vdd vss inverter
//cPar_6_53 out_6_53 vss capacitor c=0.18e-15
xinv_6_53 out_6_53 out2_6_53 vdd vss vdd vss inverter
//cPar_6_54 out_6_54 vss capacitor c=0.18e-15
xinv_6_54 out_6_54 out2_6_54 vdd vss vdd vss inverter
//cPar_6_55 out_6_55 vss capacitor c=0.18e-15
xinv_6_55 out_6_55 out2_6_55 vdd vss vdd vss inverter
//cPar_6_56 out_6_56 vss capacitor c=0.18e-15
xinv_6_56 out_6_56 out2_6_56 vdd vss vdd vss inverter
//cPar_6_57 out_6_57 vss capacitor c=0.18e-15
xinv_6_57 out_6_57 out2_6_57 vdd vss vdd vss inverter
//cPar_6_58 out_6_58 vss capacitor c=0.18e-15
xinv_6_58 out_6_58 out2_6_58 vdd vss vdd vss inverter
//cPar_6_59 out_6_59 vss capacitor c=0.18e-15
xinv_6_59 out_6_59 out2_6_59 vdd vss vdd vss inverter
//cPar_6_60 out_6_60 vss capacitor c=0.18e-15
xinv_6_60 out_6_60 out2_6_60 vdd vss vdd vss inverter
//cPar_6_61 out_6_61 vss capacitor c=0.18e-15
xinv_6_61 out_6_61 out2_6_61 vdd vss vdd vss inverter
//cPar_6_62 out_6_62 vss capacitor c=0.18e-15
xinv_6_62 out_6_62 out2_6_62 vdd vss vdd vss inverter
//cPar_6_63 out_6_63 vss capacitor c=0.18e-15
xinv_6_63 out_6_63 out2_6_63 vdd vss vdd vss inverter
save out_6_2
save out_6_2
save vvdd_6:p
vvdd_7 vdd_7 0 vsource type=dc dc=1
xdecoderseven (vss in vss vss vss vss vss  en out_7_0 out_7_1 out_7_2 out_7_3 out_7_4 out_7_5 out_7_6 out_7_7 out_7_8 out_7_9 out_7_10 out_7_11 out_7_12 out_7_13 out_7_14 out_7_15 out_7_16 out_7_17 out_7_18 out_7_19 out_7_20 out_7_21 out_7_22 out_7_23 out_7_24 out_7_25 out_7_26 out_7_27 out_7_28 out_7_29 out_7_30 out_7_31 out_7_32 out_7_33 out_7_34 out_7_35 out_7_36 out_7_37 out_7_38 out_7_39 out_7_40 out_7_41 out_7_42 out_7_43 out_7_44 out_7_45 out_7_46 out_7_47 out_7_48 out_7_49 out_7_50 out_7_51 out_7_52 out_7_53 out_7_54 out_7_55 out_7_56 out_7_57 out_7_58 out_7_59 out_7_60 out_7_61 out_7_62 out_7_63 out_7_64 out_7_65 out_7_66 out_7_67 out_7_68 out_7_69 out_7_70 out_7_71 out_7_72 out_7_73 out_7_74 out_7_75 out_7_76 out_7_77 out_7_78 out_7_79 out_7_80 out_7_81 out_7_82 out_7_83 out_7_84 out_7_85 out_7_86 out_7_87 out_7_88 out_7_89 out_7_90 out_7_91 out_7_92 out_7_93 out_7_94 out_7_95 out_7_96 out_7_97 out_7_98 out_7_99 out_7_100 out_7_101 out_7_102 out_7_103 out_7_104 out_7_105 out_7_106 out_7_107 out_7_108 out_7_109 out_7_110 out_7_111 out_7_112 out_7_113 out_7_114 out_7_115 out_7_116 out_7_117 out_7_118 out_7_119 out_7_120 out_7_121 out_7_122 out_7_123 out_7_124 out_7_125 out_7_126 out_7_127 vdd_7 vss vss vdd_7) decoderseven
//cPar_7_0 out_7_0 vss capacitor c=0.18e-15
xinv_7_0 out_7_0 out2_7_0 vdd vss vdd vss inverter
//cPar_7_1 out_7_1 vss capacitor c=0.18e-15
xinv_7_1 out_7_1 out2_7_1 vdd vss vdd vss inverter
//cPar_7_2 out_7_2 vss capacitor c=0.18e-15
xinv_7_2 out_7_2 out2_7_2 vdd vss vdd vss inverter
//cPar_7_3 out_7_3 vss capacitor c=0.18e-15
xinv_7_3 out_7_3 out2_7_3 vdd vss vdd vss inverter
//cPar_7_4 out_7_4 vss capacitor c=0.18e-15
xinv_7_4 out_7_4 out2_7_4 vdd vss vdd vss inverter
//cPar_7_5 out_7_5 vss capacitor c=0.18e-15
xinv_7_5 out_7_5 out2_7_5 vdd vss vdd vss inverter
//cPar_7_6 out_7_6 vss capacitor c=0.18e-15
xinv_7_6 out_7_6 out2_7_6 vdd vss vdd vss inverter
//cPar_7_7 out_7_7 vss capacitor c=0.18e-15
xinv_7_7 out_7_7 out2_7_7 vdd vss vdd vss inverter
//cPar_7_8 out_7_8 vss capacitor c=0.18e-15
xinv_7_8 out_7_8 out2_7_8 vdd vss vdd vss inverter
//cPar_7_9 out_7_9 vss capacitor c=0.18e-15
xinv_7_9 out_7_9 out2_7_9 vdd vss vdd vss inverter
//cPar_7_10 out_7_10 vss capacitor c=0.18e-15
xinv_7_10 out_7_10 out2_7_10 vdd vss vdd vss inverter
//cPar_7_11 out_7_11 vss capacitor c=0.18e-15
xinv_7_11 out_7_11 out2_7_11 vdd vss vdd vss inverter
//cPar_7_12 out_7_12 vss capacitor c=0.18e-15
xinv_7_12 out_7_12 out2_7_12 vdd vss vdd vss inverter
//cPar_7_13 out_7_13 vss capacitor c=0.18e-15
xinv_7_13 out_7_13 out2_7_13 vdd vss vdd vss inverter
//cPar_7_14 out_7_14 vss capacitor c=0.18e-15
xinv_7_14 out_7_14 out2_7_14 vdd vss vdd vss inverter
//cPar_7_15 out_7_15 vss capacitor c=0.18e-15
xinv_7_15 out_7_15 out2_7_15 vdd vss vdd vss inverter
//cPar_7_16 out_7_16 vss capacitor c=0.18e-15
xinv_7_16 out_7_16 out2_7_16 vdd vss vdd vss inverter
//cPar_7_17 out_7_17 vss capacitor c=0.18e-15
xinv_7_17 out_7_17 out2_7_17 vdd vss vdd vss inverter
//cPar_7_18 out_7_18 vss capacitor c=0.18e-15
xinv_7_18 out_7_18 out2_7_18 vdd vss vdd vss inverter
//cPar_7_19 out_7_19 vss capacitor c=0.18e-15
xinv_7_19 out_7_19 out2_7_19 vdd vss vdd vss inverter
//cPar_7_20 out_7_20 vss capacitor c=0.18e-15
xinv_7_20 out_7_20 out2_7_20 vdd vss vdd vss inverter
//cPar_7_21 out_7_21 vss capacitor c=0.18e-15
xinv_7_21 out_7_21 out2_7_21 vdd vss vdd vss inverter
//cPar_7_22 out_7_22 vss capacitor c=0.18e-15
xinv_7_22 out_7_22 out2_7_22 vdd vss vdd vss inverter
//cPar_7_23 out_7_23 vss capacitor c=0.18e-15
xinv_7_23 out_7_23 out2_7_23 vdd vss vdd vss inverter
//cPar_7_24 out_7_24 vss capacitor c=0.18e-15
xinv_7_24 out_7_24 out2_7_24 vdd vss vdd vss inverter
//cPar_7_25 out_7_25 vss capacitor c=0.18e-15
xinv_7_25 out_7_25 out2_7_25 vdd vss vdd vss inverter
//cPar_7_26 out_7_26 vss capacitor c=0.18e-15
xinv_7_26 out_7_26 out2_7_26 vdd vss vdd vss inverter
//cPar_7_27 out_7_27 vss capacitor c=0.18e-15
xinv_7_27 out_7_27 out2_7_27 vdd vss vdd vss inverter
//cPar_7_28 out_7_28 vss capacitor c=0.18e-15
xinv_7_28 out_7_28 out2_7_28 vdd vss vdd vss inverter
//cPar_7_29 out_7_29 vss capacitor c=0.18e-15
xinv_7_29 out_7_29 out2_7_29 vdd vss vdd vss inverter
//cPar_7_30 out_7_30 vss capacitor c=0.18e-15
xinv_7_30 out_7_30 out2_7_30 vdd vss vdd vss inverter
//cPar_7_31 out_7_31 vss capacitor c=0.18e-15
xinv_7_31 out_7_31 out2_7_31 vdd vss vdd vss inverter
//cPar_7_32 out_7_32 vss capacitor c=0.18e-15
xinv_7_32 out_7_32 out2_7_32 vdd vss vdd vss inverter
//cPar_7_33 out_7_33 vss capacitor c=0.18e-15
xinv_7_33 out_7_33 out2_7_33 vdd vss vdd vss inverter
//cPar_7_34 out_7_34 vss capacitor c=0.18e-15
xinv_7_34 out_7_34 out2_7_34 vdd vss vdd vss inverter
//cPar_7_35 out_7_35 vss capacitor c=0.18e-15
xinv_7_35 out_7_35 out2_7_35 vdd vss vdd vss inverter
//cPar_7_36 out_7_36 vss capacitor c=0.18e-15
xinv_7_36 out_7_36 out2_7_36 vdd vss vdd vss inverter
//cPar_7_37 out_7_37 vss capacitor c=0.18e-15
xinv_7_37 out_7_37 out2_7_37 vdd vss vdd vss inverter
//cPar_7_38 out_7_38 vss capacitor c=0.18e-15
xinv_7_38 out_7_38 out2_7_38 vdd vss vdd vss inverter
//cPar_7_39 out_7_39 vss capacitor c=0.18e-15
xinv_7_39 out_7_39 out2_7_39 vdd vss vdd vss inverter
//cPar_7_40 out_7_40 vss capacitor c=0.18e-15
xinv_7_40 out_7_40 out2_7_40 vdd vss vdd vss inverter
//cPar_7_41 out_7_41 vss capacitor c=0.18e-15
xinv_7_41 out_7_41 out2_7_41 vdd vss vdd vss inverter
//cPar_7_42 out_7_42 vss capacitor c=0.18e-15
xinv_7_42 out_7_42 out2_7_42 vdd vss vdd vss inverter
//cPar_7_43 out_7_43 vss capacitor c=0.18e-15
xinv_7_43 out_7_43 out2_7_43 vdd vss vdd vss inverter
//cPar_7_44 out_7_44 vss capacitor c=0.18e-15
xinv_7_44 out_7_44 out2_7_44 vdd vss vdd vss inverter
//cPar_7_45 out_7_45 vss capacitor c=0.18e-15
xinv_7_45 out_7_45 out2_7_45 vdd vss vdd vss inverter
//cPar_7_46 out_7_46 vss capacitor c=0.18e-15
xinv_7_46 out_7_46 out2_7_46 vdd vss vdd vss inverter
//cPar_7_47 out_7_47 vss capacitor c=0.18e-15
xinv_7_47 out_7_47 out2_7_47 vdd vss vdd vss inverter
//cPar_7_48 out_7_48 vss capacitor c=0.18e-15
xinv_7_48 out_7_48 out2_7_48 vdd vss vdd vss inverter
//cPar_7_49 out_7_49 vss capacitor c=0.18e-15
xinv_7_49 out_7_49 out2_7_49 vdd vss vdd vss inverter
//cPar_7_50 out_7_50 vss capacitor c=0.18e-15
xinv_7_50 out_7_50 out2_7_50 vdd vss vdd vss inverter
//cPar_7_51 out_7_51 vss capacitor c=0.18e-15
xinv_7_51 out_7_51 out2_7_51 vdd vss vdd vss inverter
//cPar_7_52 out_7_52 vss capacitor c=0.18e-15
xinv_7_52 out_7_52 out2_7_52 vdd vss vdd vss inverter
//cPar_7_53 out_7_53 vss capacitor c=0.18e-15
xinv_7_53 out_7_53 out2_7_53 vdd vss vdd vss inverter
//cPar_7_54 out_7_54 vss capacitor c=0.18e-15
xinv_7_54 out_7_54 out2_7_54 vdd vss vdd vss inverter
//cPar_7_55 out_7_55 vss capacitor c=0.18e-15
xinv_7_55 out_7_55 out2_7_55 vdd vss vdd vss inverter
//cPar_7_56 out_7_56 vss capacitor c=0.18e-15
xinv_7_56 out_7_56 out2_7_56 vdd vss vdd vss inverter
//cPar_7_57 out_7_57 vss capacitor c=0.18e-15
xinv_7_57 out_7_57 out2_7_57 vdd vss vdd vss inverter
//cPar_7_58 out_7_58 vss capacitor c=0.18e-15
xinv_7_58 out_7_58 out2_7_58 vdd vss vdd vss inverter
//cPar_7_59 out_7_59 vss capacitor c=0.18e-15
xinv_7_59 out_7_59 out2_7_59 vdd vss vdd vss inverter
//cPar_7_60 out_7_60 vss capacitor c=0.18e-15
xinv_7_60 out_7_60 out2_7_60 vdd vss vdd vss inverter
//cPar_7_61 out_7_61 vss capacitor c=0.18e-15
xinv_7_61 out_7_61 out2_7_61 vdd vss vdd vss inverter
//cPar_7_62 out_7_62 vss capacitor c=0.18e-15
xinv_7_62 out_7_62 out2_7_62 vdd vss vdd vss inverter
//cPar_7_63 out_7_63 vss capacitor c=0.18e-15
xinv_7_63 out_7_63 out2_7_63 vdd vss vdd vss inverter
//cPar_7_64 out_7_64 vss capacitor c=0.18e-15
xinv_7_64 out_7_64 out2_7_64 vdd vss vdd vss inverter
//cPar_7_65 out_7_65 vss capacitor c=0.18e-15
xinv_7_65 out_7_65 out2_7_65 vdd vss vdd vss inverter
//cPar_7_66 out_7_66 vss capacitor c=0.18e-15
xinv_7_66 out_7_66 out2_7_66 vdd vss vdd vss inverter
//cPar_7_67 out_7_67 vss capacitor c=0.18e-15
xinv_7_67 out_7_67 out2_7_67 vdd vss vdd vss inverter
//cPar_7_68 out_7_68 vss capacitor c=0.18e-15
xinv_7_68 out_7_68 out2_7_68 vdd vss vdd vss inverter
//cPar_7_69 out_7_69 vss capacitor c=0.18e-15
xinv_7_69 out_7_69 out2_7_69 vdd vss vdd vss inverter
//cPar_7_70 out_7_70 vss capacitor c=0.18e-15
xinv_7_70 out_7_70 out2_7_70 vdd vss vdd vss inverter
//cPar_7_71 out_7_71 vss capacitor c=0.18e-15
xinv_7_71 out_7_71 out2_7_71 vdd vss vdd vss inverter
//cPar_7_72 out_7_72 vss capacitor c=0.18e-15
xinv_7_72 out_7_72 out2_7_72 vdd vss vdd vss inverter
//cPar_7_73 out_7_73 vss capacitor c=0.18e-15
xinv_7_73 out_7_73 out2_7_73 vdd vss vdd vss inverter
//cPar_7_74 out_7_74 vss capacitor c=0.18e-15
xinv_7_74 out_7_74 out2_7_74 vdd vss vdd vss inverter
//cPar_7_75 out_7_75 vss capacitor c=0.18e-15
xinv_7_75 out_7_75 out2_7_75 vdd vss vdd vss inverter
//cPar_7_76 out_7_76 vss capacitor c=0.18e-15
xinv_7_76 out_7_76 out2_7_76 vdd vss vdd vss inverter
//cPar_7_77 out_7_77 vss capacitor c=0.18e-15
xinv_7_77 out_7_77 out2_7_77 vdd vss vdd vss inverter
//cPar_7_78 out_7_78 vss capacitor c=0.18e-15
xinv_7_78 out_7_78 out2_7_78 vdd vss vdd vss inverter
//cPar_7_79 out_7_79 vss capacitor c=0.18e-15
xinv_7_79 out_7_79 out2_7_79 vdd vss vdd vss inverter
//cPar_7_80 out_7_80 vss capacitor c=0.18e-15
xinv_7_80 out_7_80 out2_7_80 vdd vss vdd vss inverter
//cPar_7_81 out_7_81 vss capacitor c=0.18e-15
xinv_7_81 out_7_81 out2_7_81 vdd vss vdd vss inverter
//cPar_7_82 out_7_82 vss capacitor c=0.18e-15
xinv_7_82 out_7_82 out2_7_82 vdd vss vdd vss inverter
//cPar_7_83 out_7_83 vss capacitor c=0.18e-15
xinv_7_83 out_7_83 out2_7_83 vdd vss vdd vss inverter
//cPar_7_84 out_7_84 vss capacitor c=0.18e-15
xinv_7_84 out_7_84 out2_7_84 vdd vss vdd vss inverter
//cPar_7_85 out_7_85 vss capacitor c=0.18e-15
xinv_7_85 out_7_85 out2_7_85 vdd vss vdd vss inverter
//cPar_7_86 out_7_86 vss capacitor c=0.18e-15
xinv_7_86 out_7_86 out2_7_86 vdd vss vdd vss inverter
//cPar_7_87 out_7_87 vss capacitor c=0.18e-15
xinv_7_87 out_7_87 out2_7_87 vdd vss vdd vss inverter
//cPar_7_88 out_7_88 vss capacitor c=0.18e-15
xinv_7_88 out_7_88 out2_7_88 vdd vss vdd vss inverter
//cPar_7_89 out_7_89 vss capacitor c=0.18e-15
xinv_7_89 out_7_89 out2_7_89 vdd vss vdd vss inverter
//cPar_7_90 out_7_90 vss capacitor c=0.18e-15
xinv_7_90 out_7_90 out2_7_90 vdd vss vdd vss inverter
//cPar_7_91 out_7_91 vss capacitor c=0.18e-15
xinv_7_91 out_7_91 out2_7_91 vdd vss vdd vss inverter
//cPar_7_92 out_7_92 vss capacitor c=0.18e-15
xinv_7_92 out_7_92 out2_7_92 vdd vss vdd vss inverter
//cPar_7_93 out_7_93 vss capacitor c=0.18e-15
xinv_7_93 out_7_93 out2_7_93 vdd vss vdd vss inverter
//cPar_7_94 out_7_94 vss capacitor c=0.18e-15
xinv_7_94 out_7_94 out2_7_94 vdd vss vdd vss inverter
//cPar_7_95 out_7_95 vss capacitor c=0.18e-15
xinv_7_95 out_7_95 out2_7_95 vdd vss vdd vss inverter
//cPar_7_96 out_7_96 vss capacitor c=0.18e-15
xinv_7_96 out_7_96 out2_7_96 vdd vss vdd vss inverter
//cPar_7_97 out_7_97 vss capacitor c=0.18e-15
xinv_7_97 out_7_97 out2_7_97 vdd vss vdd vss inverter
//cPar_7_98 out_7_98 vss capacitor c=0.18e-15
xinv_7_98 out_7_98 out2_7_98 vdd vss vdd vss inverter
//cPar_7_99 out_7_99 vss capacitor c=0.18e-15
xinv_7_99 out_7_99 out2_7_99 vdd vss vdd vss inverter
//cPar_7_100 out_7_100 vss capacitor c=0.18e-15
xinv_7_100 out_7_100 out2_7_100 vdd vss vdd vss inverter
//cPar_7_101 out_7_101 vss capacitor c=0.18e-15
xinv_7_101 out_7_101 out2_7_101 vdd vss vdd vss inverter
//cPar_7_102 out_7_102 vss capacitor c=0.18e-15
xinv_7_102 out_7_102 out2_7_102 vdd vss vdd vss inverter
//cPar_7_103 out_7_103 vss capacitor c=0.18e-15
xinv_7_103 out_7_103 out2_7_103 vdd vss vdd vss inverter
//cPar_7_104 out_7_104 vss capacitor c=0.18e-15
xinv_7_104 out_7_104 out2_7_104 vdd vss vdd vss inverter
//cPar_7_105 out_7_105 vss capacitor c=0.18e-15
xinv_7_105 out_7_105 out2_7_105 vdd vss vdd vss inverter
//cPar_7_106 out_7_106 vss capacitor c=0.18e-15
xinv_7_106 out_7_106 out2_7_106 vdd vss vdd vss inverter
//cPar_7_107 out_7_107 vss capacitor c=0.18e-15
xinv_7_107 out_7_107 out2_7_107 vdd vss vdd vss inverter
//cPar_7_108 out_7_108 vss capacitor c=0.18e-15
xinv_7_108 out_7_108 out2_7_108 vdd vss vdd vss inverter
//cPar_7_109 out_7_109 vss capacitor c=0.18e-15
xinv_7_109 out_7_109 out2_7_109 vdd vss vdd vss inverter
//cPar_7_110 out_7_110 vss capacitor c=0.18e-15
xinv_7_110 out_7_110 out2_7_110 vdd vss vdd vss inverter
//cPar_7_111 out_7_111 vss capacitor c=0.18e-15
xinv_7_111 out_7_111 out2_7_111 vdd vss vdd vss inverter
//cPar_7_112 out_7_112 vss capacitor c=0.18e-15
xinv_7_112 out_7_112 out2_7_112 vdd vss vdd vss inverter
//cPar_7_113 out_7_113 vss capacitor c=0.18e-15
xinv_7_113 out_7_113 out2_7_113 vdd vss vdd vss inverter
//cPar_7_114 out_7_114 vss capacitor c=0.18e-15
xinv_7_114 out_7_114 out2_7_114 vdd vss vdd vss inverter
//cPar_7_115 out_7_115 vss capacitor c=0.18e-15
xinv_7_115 out_7_115 out2_7_115 vdd vss vdd vss inverter
//cPar_7_116 out_7_116 vss capacitor c=0.18e-15
xinv_7_116 out_7_116 out2_7_116 vdd vss vdd vss inverter
//cPar_7_117 out_7_117 vss capacitor c=0.18e-15
xinv_7_117 out_7_117 out2_7_117 vdd vss vdd vss inverter
//cPar_7_118 out_7_118 vss capacitor c=0.18e-15
xinv_7_118 out_7_118 out2_7_118 vdd vss vdd vss inverter
//cPar_7_119 out_7_119 vss capacitor c=0.18e-15
xinv_7_119 out_7_119 out2_7_119 vdd vss vdd vss inverter
//cPar_7_120 out_7_120 vss capacitor c=0.18e-15
xinv_7_120 out_7_120 out2_7_120 vdd vss vdd vss inverter
//cPar_7_121 out_7_121 vss capacitor c=0.18e-15
xinv_7_121 out_7_121 out2_7_121 vdd vss vdd vss inverter
//cPar_7_122 out_7_122 vss capacitor c=0.18e-15
xinv_7_122 out_7_122 out2_7_122 vdd vss vdd vss inverter
//cPar_7_123 out_7_123 vss capacitor c=0.18e-15
xinv_7_123 out_7_123 out2_7_123 vdd vss vdd vss inverter
//cPar_7_124 out_7_124 vss capacitor c=0.18e-15
xinv_7_124 out_7_124 out2_7_124 vdd vss vdd vss inverter
//cPar_7_125 out_7_125 vss capacitor c=0.18e-15
xinv_7_125 out_7_125 out2_7_125 vdd vss vdd vss inverter
//cPar_7_126 out_7_126 vss capacitor c=0.18e-15
xinv_7_126 out_7_126 out2_7_126 vdd vss vdd vss inverter
//cPar_7_127 out_7_127 vss capacitor c=0.18e-15
xinv_7_127 out_7_127 out2_7_127 vdd vss vdd vss inverter
save out_7_2
save out_7_2
save vvdd_7:p
vvdd_8 vdd_8 0 vsource type=dc dc=1
xdecodereight (vss in vss vss vss vss vss vss  en out_8_0 out_8_1 out_8_2 out_8_3 out_8_4 out_8_5 out_8_6 out_8_7 out_8_8 out_8_9 out_8_10 out_8_11 out_8_12 out_8_13 out_8_14 out_8_15 out_8_16 out_8_17 out_8_18 out_8_19 out_8_20 out_8_21 out_8_22 out_8_23 out_8_24 out_8_25 out_8_26 out_8_27 out_8_28 out_8_29 out_8_30 out_8_31 out_8_32 out_8_33 out_8_34 out_8_35 out_8_36 out_8_37 out_8_38 out_8_39 out_8_40 out_8_41 out_8_42 out_8_43 out_8_44 out_8_45 out_8_46 out_8_47 out_8_48 out_8_49 out_8_50 out_8_51 out_8_52 out_8_53 out_8_54 out_8_55 out_8_56 out_8_57 out_8_58 out_8_59 out_8_60 out_8_61 out_8_62 out_8_63 out_8_64 out_8_65 out_8_66 out_8_67 out_8_68 out_8_69 out_8_70 out_8_71 out_8_72 out_8_73 out_8_74 out_8_75 out_8_76 out_8_77 out_8_78 out_8_79 out_8_80 out_8_81 out_8_82 out_8_83 out_8_84 out_8_85 out_8_86 out_8_87 out_8_88 out_8_89 out_8_90 out_8_91 out_8_92 out_8_93 out_8_94 out_8_95 out_8_96 out_8_97 out_8_98 out_8_99 out_8_100 out_8_101 out_8_102 out_8_103 out_8_104 out_8_105 out_8_106 out_8_107 out_8_108 out_8_109 out_8_110 out_8_111 out_8_112 out_8_113 out_8_114 out_8_115 out_8_116 out_8_117 out_8_118 out_8_119 out_8_120 out_8_121 out_8_122 out_8_123 out_8_124 out_8_125 out_8_126 out_8_127 out_8_128 out_8_129 out_8_130 out_8_131 out_8_132 out_8_133 out_8_134 out_8_135 out_8_136 out_8_137 out_8_138 out_8_139 out_8_140 out_8_141 out_8_142 out_8_143 out_8_144 out_8_145 out_8_146 out_8_147 out_8_148 out_8_149 out_8_150 out_8_151 out_8_152 out_8_153 out_8_154 out_8_155 out_8_156 out_8_157 out_8_158 out_8_159 out_8_160 out_8_161 out_8_162 out_8_163 out_8_164 out_8_165 out_8_166 out_8_167 out_8_168 out_8_169 out_8_170 out_8_171 out_8_172 out_8_173 out_8_174 out_8_175 out_8_176 out_8_177 out_8_178 out_8_179 out_8_180 out_8_181 out_8_182 out_8_183 out_8_184 out_8_185 out_8_186 out_8_187 out_8_188 out_8_189 out_8_190 out_8_191 out_8_192 out_8_193 out_8_194 out_8_195 out_8_196 out_8_197 out_8_198 out_8_199 out_8_200 out_8_201 out_8_202 out_8_203 out_8_204 out_8_205 out_8_206 out_8_207 out_8_208 out_8_209 out_8_210 out_8_211 out_8_212 out_8_213 out_8_214 out_8_215 out_8_216 out_8_217 out_8_218 out_8_219 out_8_220 out_8_221 out_8_222 out_8_223 out_8_224 out_8_225 out_8_226 out_8_227 out_8_228 out_8_229 out_8_230 out_8_231 out_8_232 out_8_233 out_8_234 out_8_235 out_8_236 out_8_237 out_8_238 out_8_239 out_8_240 out_8_241 out_8_242 out_8_243 out_8_244 out_8_245 out_8_246 out_8_247 out_8_248 out_8_249 out_8_250 out_8_251 out_8_252 out_8_253 out_8_254 out_8_255 vdd_8 vss vss vdd_8) decodereight
//cPar_8_0 out_8_0 vss capacitor c=0.18e-15