
simulator lang=spectre

include "transistorsPTM.scs"
include "../../ArchitectureDesign/SPICE/decoder.sp"
include "parameters2.sp"

xdecoder (IN_0 IN_1 IN_2 IN_3 IN_4 IN_5 IN_6 IN_7 enable TEMP_0_0 TEMP_0_1 TEMP_0_2 TEMP_0_3 TEMP_0_4 TEMP_0_5 TEMP_0_6 TEMP_0_7 TEMP_0_8 TEMP_0_9 TEMP_0_10 TEMP_0_11 TEMP_0_12 TEMP_0_13 TEMP_0_14 TEMP_0_15 TEMP_0_16 TEMP_0_17 TEMP_0_18 TEMP_0_19 TEMP_0_20 TEMP_0_21 TEMP_0_22 TEMP_0_23 TEMP_0_24 TEMP_0_25 TEMP_0_26 TEMP_0_27 TEMP_0_28 TEMP_0_29 TEMP_0_30 TEMP_0_31 TEMP_0_32 TEMP_0_33 TEMP_0_34 TEMP_0_35 TEMP_0_36 TEMP_0_37 TEMP_0_38 TEMP_0_39 TEMP_0_40 TEMP_0_41 TEMP_0_42 TEMP_0_43 TEMP_0_44 TEMP_0_45 TEMP_0_46 TEMP_0_47 TEMP_0_48 TEMP_0_49 TEMP_0_50 TEMP_0_51 TEMP_0_52 TEMP_0_53 TEMP_0_54 TEMP_0_55 TEMP_0_56 TEMP_0_57 TEMP_0_58 TEMP_0_59 TEMP_0_60 TEMP_0_61 TEMP_0_62 TEMP_0_63 TEMP_0_64 TEMP_0_65 TEMP_0_66 TEMP_0_67 TEMP_0_68 TEMP_0_69 TEMP_0_70 TEMP_0_71 TEMP_0_72 TEMP_0_73 TEMP_0_74 TEMP_0_75 TEMP_0_76 TEMP_0_77 TEMP_0_78 TEMP_0_79 TEMP_0_80 TEMP_0_81 TEMP_0_82 TEMP_0_83 TEMP_0_84 TEMP_0_85 TEMP_0_86 TEMP_0_87 TEMP_0_88 TEMP_0_89 TEMP_0_90 TEMP_0_91 TEMP_0_92 TEMP_0_93 TEMP_0_94 TEMP_0_95 TEMP_0_96 TEMP_0_97 TEMP_0_98 TEMP_0_99 TEMP_0_100 TEMP_0_101 TEMP_0_102 TEMP_0_103 TEMP_0_104 TEMP_0_105 TEMP_0_106 TEMP_0_107 TEMP_0_108 TEMP_0_109 TEMP_0_110 TEMP_0_111 TEMP_0_112 TEMP_0_113 TEMP_0_114 TEMP_0_115 TEMP_0_116 TEMP_0_117 TEMP_0_118 TEMP_0_119 TEMP_0_120 TEMP_0_121 TEMP_0_122 TEMP_0_123 TEMP_0_124 TEMP_0_125 TEMP_0_126 TEMP_0_127 TEMP_0_128 TEMP_0_129 TEMP_0_130 TEMP_0_131 TEMP_0_132 TEMP_0_133 TEMP_0_134 TEMP_0_135 TEMP_0_136 TEMP_0_137 TEMP_0_138 TEMP_0_139 TEMP_0_140 TEMP_0_141 TEMP_0_142 TEMP_0_143 TEMP_0_144 TEMP_0_145 TEMP_0_146 TEMP_0_147 TEMP_0_148 TEMP_0_149 TEMP_0_150 TEMP_0_151 TEMP_0_152 TEMP_0_153 TEMP_0_154 TEMP_0_155 TEMP_0_156 TEMP_0_157 TEMP_0_158 TEMP_0_159 TEMP_0_160 TEMP_0_161 TEMP_0_162 TEMP_0_163 TEMP_0_164 TEMP_0_165 TEMP_0_166 TEMP_0_167 TEMP_0_168 TEMP_0_169 TEMP_0_170 TEMP_0_171 TEMP_0_172 TEMP_0_173 TEMP_0_174 TEMP_0_175 TEMP_0_176 TEMP_0_177 TEMP_0_178 TEMP_0_179 TEMP_0_180 TEMP_0_181 TEMP_0_182 TEMP_0_183 TEMP_0_184 TEMP_0_185 TEMP_0_186 TEMP_0_187 TEMP_0_188 TEMP_0_189 TEMP_0_190 TEMP_0_191 TEMP_0_192 TEMP_0_193 TEMP_0_194 TEMP_0_195 TEMP_0_196 TEMP_0_197 TEMP_0_198 TEMP_0_199 TEMP_0_200 TEMP_0_201 TEMP_0_202 TEMP_0_203 TEMP_0_204 TEMP_0_205 TEMP_0_206 TEMP_0_207 TEMP_0_208 TEMP_0_209 TEMP_0_210 TEMP_0_211 TEMP_0_212 TEMP_0_213 TEMP_0_214 TEMP_0_215 TEMP_0_216 TEMP_0_217 TEMP_0_218 TEMP_0_219 TEMP_0_220 TEMP_0_221 TEMP_0_222 TEMP_0_223 TEMP_0_224 TEMP_0_225 TEMP_0_226 TEMP_0_227 TEMP_0_228 TEMP_0_229 TEMP_0_230 TEMP_0_231 TEMP_0_232 TEMP_0_233 TEMP_0_234 TEMP_0_235 TEMP_0_236 TEMP_0_237 TEMP_0_238 TEMP_0_239 TEMP_0_240 TEMP_0_241 TEMP_0_242 TEMP_0_243 TEMP_0_244 TEMP_0_245 TEMP_0_246 TEMP_0_247 TEMP_0_248 TEMP_0_249 TEMP_0_250 TEMP_0_251 TEMP_0_252 TEMP_0_253 TEMP_0_254 TEMP_0_255 vdd vss NBulkLine PBulkLine) decodereight // multstage_1 = dec1multstage_1 multstage_2 = dec1multstage_2 multstage_3 = dec1multstage_3 multstage_4 = dec1multstage_4 multstage_5 = dec1multstage_5 multstage_6 = dec1multstage_6 multstage_7 = dec1multstage_7
cLoad0 (OUT_0 0) capacitor c=2.88e-15
cLoad1 (OUT_1 0) capacitor c=2.88e-15
cLoad2 (OUT_2 0) capacitor c=2.88e-15
cLoad3 (OUT_3 0) capacitor c=2.88e-15
cLoad4 (OUT_4 0) capacitor c=2.88e-15
cLoad5 (OUT_5 0) capacitor c=2.88e-15
cLoad6 (OUT_6 0) capacitor c=2.88e-15
cLoad7 (OUT_7 0) capacitor c=2.88e-15
cLoad8 (OUT_8 0) capacitor c=2.88e-15
cLoad9 (OUT_9 0) capacitor c=2.88e-15
cLoad10 (OUT_10 0) capacitor c=2.88e-15
cLoad11 (OUT_11 0) capacitor c=2.88e-15
cLoad12 (OUT_12 0) capacitor c=2.88e-15
cLoad13 (OUT_13 0) capacitor c=2.88e-15
cLoad14 (OUT_14 0) capacitor c=2.88e-15
cLoad15 (OUT_15 0) capacitor c=2.88e-15
cLoad16 (OUT_16 0) capacitor c=2.88e-15
cLoad17 (OUT_17 0) capacitor c=2.88e-15
cLoad18 (OUT_18 0) capacitor c=2.88e-15
cLoad19 (OUT_19 0) capacitor c=2.88e-15
cLoad20 (OUT_20 0) capacitor c=2.88e-15
cLoad21 (OUT_21 0) capacitor c=2.88e-15
cLoad22 (OUT_22 0) capacitor c=2.88e-15
cLoad23 (OUT_23 0) capacitor c=2.88e-15
cLoad24 (OUT_24 0) capacitor c=2.88e-15
cLoad25 (OUT_25 0) capacitor c=2.88e-15
cLoad26 (OUT_26 0) capacitor c=2.88e-15
cLoad27 (OUT_27 0) capacitor c=2.88e-15
cLoad28 (OUT_28 0) capacitor c=2.88e-15
cLoad29 (OUT_29 0) capacitor c=2.88e-15
cLoad30 (OUT_30 0) capacitor c=2.88e-15
cLoad31 (OUT_31 0) capacitor c=2.88e-15
cLoad32 (OUT_32 0) capacitor c=2.88e-15
cLoad33 (OUT_33 0) capacitor c=2.88e-15
cLoad34 (OUT_34 0) capacitor c=2.88e-15
cLoad35 (OUT_35 0) capacitor c=2.88e-15
cLoad36 (OUT_36 0) capacitor c=2.88e-15
cLoad37 (OUT_37 0) capacitor c=2.88e-15
cLoad38 (OUT_38 0) capacitor c=2.88e-15
cLoad39 (OUT_39 0) capacitor c=2.88e-15
cLoad40 (OUT_40 0) capacitor c=2.88e-15
cLoad41 (OUT_41 0) capacitor c=2.88e-15
cLoad42 (OUT_42 0) capacitor c=2.88e-15
cLoad43 (OUT_43 0) capacitor c=2.88e-15
cLoad44 (OUT_44 0) capacitor c=2.88e-15
cLoad45 (OUT_45 0) capacitor c=2.88e-15
cLoad46 (OUT_46 0) capacitor c=2.88e-15
cLoad47 (OUT_47 0) capacitor c=2.88e-15
cLoad48 (OUT_48 0) capacitor c=2.88e-15
cLoad49 (OUT_49 0) capacitor c=2.88e-15
cLoad50 (OUT_50 0) capacitor c=2.88e-15
cLoad51 (OUT_51 0) capacitor c=2.88e-15
cLoad52 (OUT_52 0) capacitor c=2.88e-15
cLoad53 (OUT_53 0) capacitor c=2.88e-15
cLoad54 (OUT_54 0) capacitor c=2.88e-15
cLoad55 (OUT_55 0) capacitor c=2.88e-15
cLoad56 (OUT_56 0) capacitor c=2.88e-15
cLoad57 (OUT_57 0) capacitor c=2.88e-15
cLoad58 (OUT_58 0) capacitor c=2.88e-15
cLoad59 (OUT_59 0) capacitor c=2.88e-15
cLoad60 (OUT_60 0) capacitor c=2.88e-15
cLoad61 (OUT_61 0) capacitor c=2.88e-15
cLoad62 (OUT_62 0) capacitor c=2.88e-15
cLoad63 (OUT_63 0) capacitor c=2.88e-15
cLoad64 (OUT_64 0) capacitor c=2.88e-15
cLoad65 (OUT_65 0) capacitor c=2.88e-15
cLoad66 (OUT_66 0) capacitor c=2.88e-15
cLoad67 (OUT_67 0) capacitor c=2.88e-15
cLoad68 (OUT_68 0) capacitor c=2.88e-15
cLoad69 (OUT_69 0) capacitor c=2.88e-15
cLoad70 (OUT_70 0) capacitor c=2.88e-15
cLoad71 (OUT_71 0) capacitor c=2.88e-15
cLoad72 (OUT_72 0) capacitor c=2.88e-15
cLoad73 (OUT_73 0) capacitor c=2.88e-15
cLoad74 (OUT_74 0) capacitor c=2.88e-15
cLoad75 (OUT_75 0) capacitor c=2.88e-15
cLoad76 (OUT_76 0) capacitor c=2.88e-15
cLoad77 (OUT_77 0) capacitor c=2.88e-15
cLoad78 (OUT_78 0) capacitor c=2.88e-15
cLoad79 (OUT_79 0) capacitor c=2.88e-15
cLoad80 (OUT_80 0) capacitor c=2.88e-15
cLoad81 (OUT_81 0) capacitor c=2.88e-15
cLoad82 (OUT_82 0) capacitor c=2.88e-15
cLoad83 (OUT_83 0) capacitor c=2.88e-15
cLoad84 (OUT_84 0) capacitor c=2.88e-15
cLoad85 (OUT_85 0) capacitor c=2.88e-15
cLoad86 (OUT_86 0) capacitor c=2.88e-15
cLoad87 (OUT_87 0) capacitor c=2.88e-15
cLoad88 (OUT_88 0) capacitor c=2.88e-15
cLoad89 (OUT_89 0) capacitor c=2.88e-15
cLoad90 (OUT_90 0) capacitor c=2.88e-15
cLoad91 (OUT_91 0) capacitor c=2.88e-15
cLoad92 (OUT_92 0) capacitor c=2.88e-15
cLoad93 (OUT_93 0) capacitor c=2.88e-15
cLoad94 (OUT_94 0) capacitor c=2.88e-15
cLoad95 (OUT_95 0) capacitor c=2.88e-15
cLoad96 (OUT_96 0) capacitor c=2.88e-15
cLoad97 (OUT_97 0) capacitor c=2.88e-15
cLoad98 (OUT_98 0) capacitor c=2.88e-15
cLoad99 (OUT_99 0) capacitor c=2.88e-15
cLoad100 (OUT_100 0) capacitor c=2.88e-15
cLoad101 (OUT_101 0) capacitor c=2.88e-15
cLoad102 (OUT_102 0) capacitor c=2.88e-15
cLoad103 (OUT_103 0) capacitor c=2.88e-15
cLoad104 (OUT_104 0) capacitor c=2.88e-15
cLoad105 (OUT_105 0) capacitor c=2.88e-15
cLoad106 (OUT_106 0) capacitor c=2.88e-15
cLoad107 (OUT_107 0) capacitor c=2.88e-15
cLoad108 (OUT_108 0) capacitor c=2.88e-15
cLoad109 (OUT_109 0) capacitor c=2.88e-15
cLoad110 (OUT_110 0) capacitor c=2.88e-15
cLoad111 (OUT_111 0) capacitor c=2.88e-15
cLoad112 (OUT_112 0) capacitor c=2.88e-15
cLoad113 (OUT_113 0) capacitor c=2.88e-15
cLoad114 (OUT_114 0) capacitor c=2.88e-15
cLoad115 (OUT_115 0) capacitor c=2.88e-15
cLoad116 (OUT_116 0) capacitor c=2.88e-15
cLoad117 (OUT_117 0) capacitor c=2.88e-15
cLoad118 (OUT_118 0) capacitor c=2.88e-15
cLoad119 (OUT_119 0) capacitor c=2.88e-15
cLoad120 (OUT_120 0) capacitor c=2.88e-15
cLoad121 (OUT_121 0) capacitor c=2.88e-15
cLoad122 (OUT_122 0) capacitor c=2.88e-15
cLoad123 (OUT_123 0) capacitor c=2.88e-15
cLoad124 (OUT_124 0) capacitor c=2.88e-15
cLoad125 (OUT_125 0) capacitor c=2.88e-15
cLoad126 (OUT_126 0) capacitor c=2.88e-15
cLoad127 (OUT_127 0) capacitor c=2.88e-15
cLoad128 (OUT_128 0) capacitor c=2.88e-15
cLoad129 (OUT_129 0) capacitor c=2.88e-15
cLoad130 (OUT_130 0) capacitor c=2.88e-15
cLoad131 (OUT_131 0) capacitor c=2.88e-15
cLoad132 (OUT_132 0) capacitor c=2.88e-15
cLoad133 (OUT_133 0) capacitor c=2.88e-15
cLoad134 (OUT_134 0) capacitor c=2.88e-15
cLoad135 (OUT_135 0) capacitor c=2.88e-15
cLoad136 (OUT_136 0) capacitor c=2.88e-15
cLoad137 (OUT_137 0) capacitor c=2.88e-15
cLoad138 (OUT_138 0) capacitor c=2.88e-15
cLoad139 (OUT_139 0) capacitor c=2.88e-15
cLoad140 (OUT_140 0) capacitor c=2.88e-15
cLoad141 (OUT_141 0) capacitor c=2.88e-15
cLoad142 (OUT_142 0) capacitor c=2.88e-15
cLoad143 (OUT_143 0) capacitor c=2.88e-15
cLoad144 (OUT_144 0) capacitor c=2.88e-15
cLoad145 (OUT_145 0) capacitor c=2.88e-15
cLoad146 (OUT_146 0) capacitor c=2.88e-15
cLoad147 (OUT_147 0) capacitor c=2.88e-15
cLoad148 (OUT_148 0) capacitor c=2.88e-15
cLoad149 (OUT_149 0) capacitor c=2.88e-15
cLoad150 (OUT_150 0) capacitor c=2.88e-15
cLoad151 (OUT_151 0) capacitor c=2.88e-15
cLoad152 (OUT_152 0) capacitor c=2.88e-15
cLoad153 (OUT_153 0) capacitor c=2.88e-15
cLoad154 (OUT_154 0) capacitor c=2.88e-15
cLoad155 (OUT_155 0) capacitor c=2.88e-15
cLoad156 (OUT_156 0) capacitor c=2.88e-15
cLoad157 (OUT_157 0) capacitor c=2.88e-15
cLoad158 (OUT_158 0) capacitor c=2.88e-15
cLoad159 (OUT_159 0) capacitor c=2.88e-15
cLoad160 (OUT_160 0) capacitor c=2.88e-15
cLoad161 (OUT_161 0) capacitor c=2.88e-15
cLoad162 (OUT_162 0) capacitor c=2.88e-15
cLoad163 (OUT_163 0) capacitor c=2.88e-15
cLoad164 (OUT_164 0) capacitor c=2.88e-15
cLoad165 (OUT_165 0) capacitor c=2.88e-15
cLoad166 (OUT_166 0) capacitor c=2.88e-15
cLoad167 (OUT_167 0) capacitor c=2.88e-15
cLoad168 (OUT_168 0) capacitor c=2.88e-15
cLoad169 (OUT_169 0) capacitor c=2.88e-15
cLoad170 (OUT_170 0) capacitor c=2.88e-15
cLoad171 (OUT_171 0) capacitor c=2.88e-15
cLoad172 (OUT_172 0) capacitor c=2.88e-15
cLoad173 (OUT_173 0) capacitor c=2.88e-15
cLoad174 (OUT_174 0) capacitor c=2.88e-15
cLoad175 (OUT_175 0) capacitor c=2.88e-15
cLoad176 (OUT_176 0) capacitor c=2.88e-15
cLoad177 (OUT_177 0) capacitor c=2.88e-15
cLoad178 (OUT_178 0) capacitor c=2.88e-15
cLoad179 (OUT_179 0) capacitor c=2.88e-15
cLoad180 (OUT_180 0) capacitor c=2.88e-15
cLoad181 (OUT_181 0) capacitor c=2.88e-15
cLoad182 (OUT_182 0) capacitor c=2.88e-15
cLoad183 (OUT_183 0) capacitor c=2.88e-15
cLoad184 (OUT_184 0) capacitor c=2.88e-15
cLoad185 (OUT_185 0) capacitor c=2.88e-15
cLoad186 (OUT_186 0) capacitor c=2.88e-15
cLoad187 (OUT_187 0) capacitor c=2.88e-15
cLoad188 (OUT_188 0) capacitor c=2.88e-15
cLoad189 (OUT_189 0) capacitor c=2.88e-15
cLoad190 (OUT_190 0) capacitor c=2.88e-15
cLoad191 (OUT_191 0) capacitor c=2.88e-15
cLoad192 (OUT_192 0) capacitor c=2.88e-15
cLoad193 (OUT_193 0) capacitor c=2.88e-15
cLoad194 (OUT_194 0) capacitor c=2.88e-15
cLoad195 (OUT_195 0) capacitor c=2.88e-15
cLoad196 (OUT_196 0) capacitor c=2.88e-15
cLoad197 (OUT_197 0) capacitor c=2.88e-15
cLoad198 (OUT_198 0) capacitor c=2.88e-15
cLoad199 (OUT_199 0) capacitor c=2.88e-15
cLoad200 (OUT_200 0) capacitor c=2.88e-15
cLoad201 (OUT_201 0) capacitor c=2.88e-15
cLoad202 (OUT_202 0) capacitor c=2.88e-15
cLoad203 (OUT_203 0) capacitor c=2.88e-15
cLoad204 (OUT_204 0) capacitor c=2.88e-15
cLoad205 (OUT_205 0) capacitor c=2.88e-15
cLoad206 (OUT_206 0) capacitor c=2.88e-15
cLoad207 (OUT_207 0) capacitor c=2.88e-15
cLoad208 (OUT_208 0) capacitor c=2.88e-15
cLoad209 (OUT_209 0) capacitor c=2.88e-15
cLoad210 (OUT_210 0) capacitor c=2.88e-15
cLoad211 (OUT_211 0) capacitor c=2.88e-15
cLoad212 (OUT_212 0) capacitor c=2.88e-15
cLoad213 (OUT_213 0) capacitor c=2.88e-15
cLoad214 (OUT_214 0) capacitor c=2.88e-15
cLoad215 (OUT_215 0) capacitor c=2.88e-15
cLoad216 (OUT_216 0) capacitor c=2.88e-15
cLoad217 (OUT_217 0) capacitor c=2.88e-15
cLoad218 (OUT_218 0) capacitor c=2.88e-15
cLoad219 (OUT_219 0) capacitor c=2.88e-15
cLoad220 (OUT_220 0) capacitor c=2.88e-15
cLoad221 (OUT_221 0) capacitor c=2.88e-15
cLoad222 (OUT_222 0) capacitor c=2.88e-15
cLoad223 (OUT_223 0) capacitor c=2.88e-15
cLoad224 (OUT_224 0) capacitor c=2.88e-15
cLoad225 (OUT_225 0) capacitor c=2.88e-15
cLoad226 (OUT_226 0) capacitor c=2.88e-15
cLoad227 (OUT_227 0) capacitor c=2.88e-15
cLoad228 (OUT_228 0) capacitor c=2.88e-15
cLoad229 (OUT_229 0) capacitor c=2.88e-15
cLoad230 (OUT_230 0) capacitor c=2.88e-15
cLoad231 (OUT_231 0) capacitor c=2.88e-15
cLoad232 (OUT_232 0) capacitor c=2.88e-15
cLoad233 (OUT_233 0) capacitor c=2.88e-15
cLoad234 (OUT_234 0) capacitor c=2.88e-15
cLoad235 (OUT_235 0) capacitor c=2.88e-15
cLoad236 (OUT_236 0) capacitor c=2.88e-15
cLoad237 (OUT_237 0) capacitor c=2.88e-15
cLoad238 (OUT_238 0) capacitor c=2.88e-15
cLoad239 (OUT_239 0) capacitor c=2.88e-15
cLoad240 (OUT_240 0) capacitor c=2.88e-15
cLoad241 (OUT_241 0) capacitor c=2.88e-15
cLoad242 (OUT_242 0) capacitor c=2.88e-15
cLoad243 (OUT_243 0) capacitor c=2.88e-15
cLoad244 (OUT_244 0) capacitor c=2.88e-15
cLoad245 (OUT_245 0) capacitor c=2.88e-15
cLoad246 (OUT_246 0) capacitor c=2.88e-15
cLoad247 (OUT_247 0) capacitor c=2.88e-15
cLoad248 (OUT_248 0) capacitor c=2.88e-15
cLoad249 (OUT_249 0) capacitor c=2.88e-15
cLoad250 (OUT_250 0) capacitor c=2.88e-15
cLoad251 (OUT_251 0) capacitor c=2.88e-15
cLoad252 (OUT_252 0) capacitor c=2.88e-15
cLoad253 (OUT_253 0) capacitor c=2.88e-15
cLoad254 (OUT_254 0) capacitor c=2.88e-15
cLoad255 (OUT_255 0) capacitor c=2.88e-15

xNOT_0_0 (TEMP_0_0 TEMP_1_0 vdd vss PBulkLine NBulkLine) inverter mult=1
xNOT_0_1 (TEMP_0_1 TEMP_1_1 vdd vss PBulkLine NBulkLine) inverter mult=1
xNOT_0_2 (TEMP_0_2 TEMP_1_2 vdd vss PBulkLine NBulkLine) inverter mult=1
xNOT_0_3 (TEMP_0_3 TEMP_1_3 vdd vss PBulkLine NBulkLine) inverter mult=1
xNOT_0_4 (TEMP_0_4 TEMP_1_4 vdd vss PBulkLine NBulkLine) inverter mult=1
xNOT_0_5 (TEMP_0_5 TEMP_1_5 vdd vss PBulkLine NBulkLine) inverter mult=1
xNOT_0_6 (TEMP_0_6 TEMP_1_6 vdd vss PBulkLine NBulkLine) inverter mult=1
xNOT_0_7 (TEMP_0_7 TEMP_1_7 vdd vss PBulkLine NBulkLine) inverter mult=1
xNOT_0_8 (TEMP_0_8 TEMP_1_8 vdd vss PBulkLine NBulkLine) inverter mult=1
xNOT_0_9 (TEMP_0_9 TEMP_1_9 vdd vss PBulkLine NBulkLine) inverter mult=1
xNOT_0_10 (TEMP_0_10 TEMP_1_10 vdd vss PBulkLine NBulkLine) inverter mult=1
xNOT_0_11 (TEMP_0_11 TEMP_1_11 vdd vss PBulkLine NBulkLine) inverter mult=1
xNOT_0_12 (TEMP_0_12 TEMP_1_12 vdd vss PBulkLine NBulkLine) inverter mult=1
xNOT_0_13 (TEMP_0_13 TEMP_1_13 vdd vss PBulkLine NBulkLine) inverter mult=1
xNOT_0_14 (TEMP_0_14 TEMP_1_14 vdd vss PBulkLine NBulkLine) inverter mult=1
xNOT_0_15 (TEMP_0_15 TEMP_1_15 vdd vss PBulkLine NBulkLine) inverter mult=1
xNOT_0_16 (TEMP_0_16 TEMP_1_16 vdd vss PBulkLine NBulkLine) inverter mult=1
xNOT_0_17 (TEMP_0_17 TEMP_1_17 vdd vss PBulkLine NBulkLine) inverter mult=1
xNOT_0_18 (TEMP_0_18 TEMP_1_18 vdd vss PBulkLine NBulkLine) inverter mult=1
xNOT_0_19 (TEMP_0_19 TEMP_1_19 vdd vss PBulkLine NBulkLine) inverter mult=1
xNOT_0_20 (TEMP_0_20 TEMP_1_20 vdd vss PBulkLine NBulkLine) inverter mult=1
xNOT_0_21 (TEMP_0_21 TEMP_1_21 vdd vss PBulkLine NBulkLine) inverter mult=1
xNOT_0_22 (TEMP_0_22 TEMP_1_22 vdd vss PBulkLine NBulkLine) inverter mult=1
xNOT_0_23 (TEMP_0_23 TEMP_1_23 vdd vss PBulkLine NBulkLine) inverter mult=1
xNOT_0_24 (TEMP_0_24 TEMP_1_24 vdd vss PBulkLine NBulkLine) inverter mult=1
xNOT_0_25 (TEMP_0_25 TEMP_1_25 vdd vss PBulkLine NBulkLine) inverter mult=1
xNOT_0_26 (TEMP_0_26 TEMP_1_26 vdd vss PBulkLine NBulkLine) inverter mult=1
xNOT_0_27 (TEMP_0_27 TEMP_1_27 vdd vss PBulkLine NBulkLine) inverter mult=1
xNOT_0_28 (TEMP_0_28 TEMP_1_28 vdd vss PBulkLine NBulkLine) inverter mult=1
xNOT_0_29 (TEMP_0_29 TEMP_1_29 vdd vss PBulkLine NBulkLine) inverter mult=1
xNOT_0_30 (TEMP_0_30 TEMP_1_30 vdd vss PBulkLine NBulkLine) inverter mult=1
xNOT_0_31 (TEMP_0_31 TEMP_1_31 vdd vss PBulkLine NBulkLine) inverter mult=1
xNOT_0_32 (TEMP_0_32 TEMP_1_32 vdd vss PBulkLine NBulkLine) inverter mult=1
xNOT_0_33 (TEMP_0_33 TEMP_1_33 vdd vss PBulkLine NBulkLine) inverter mult=1
xNOT_0_34 (TEMP_0_34 TEMP_1_34 vdd vss PBulkLine NBulkLine) inverter mult=1
xNOT_0_35 (TEMP_0_35 TEMP_1_35 vdd vss PBulkLine NBulkLine) inverter mult=1
xNOT_0_36 (TEMP_0_36 TEMP_1_36 vdd vss PBulkLine NBulkLine) inverter mult=1
xNOT_0_37 (TEMP_0_37 TEMP_1_37 vdd vss PBulkLine NBulkLine) inverter mult=1
xNOT_0_38 (TEMP_0_38 TEMP_1_38 vdd vss PBulkLine NBulkLine) inverter mult=1
xNOT_0_39 (TEMP_0_39 TEMP_1_39 vdd vss PBulkLine NBulkLine) inverter mult=1
xNOT_0_40 (TEMP_0_40 TEMP_1_40 vdd vss PBulkLine NBulkLine) inverter mult=1
xNOT_0_41 (TEMP_0_41 TEMP_1_41 vdd vss PBulkLine NBulkLine) inverter mult=1
xNOT_0_42 (TEMP_0_42 TEMP_1_42 vdd vss PBulkLine NBulkLine) inverter mult=1
xNOT_0_43 (TEMP_0_43 TEMP_1_43 vdd vss PBulkLine NBulkLine) inverter mult=1
xNOT_0_44 (TEMP_0_44 TEMP_1_44 vdd vss PBulkLine NBulkLine) inverter mult=1
xNOT_0_45 (TEMP_0_45 TEMP_1_45 vdd vss PBulkLine NBulkLine) inverter mult=1
xNOT_0_46 (TEMP_0_46 TEMP_1_46 vdd vss PBulkLine NBulkLine) inverter mult=1
xNOT_0_47 (TEMP_0_47 TEMP_1_47 vdd vss PBulkLine NBulkLine) inverter mult=1
xNOT_0_48 (TEMP_0_48 TEMP_1_48 vdd vss PBulkLine NBulkLine) inverter mult=1
xNOT_0_49 (TEMP_0_49 TEMP_1_49 vdd vss PBulkLine NBulkLine) inverter mult=1
xNOT_0_50 (TEMP_0_50 TEMP_1_50 vdd vss PBulkLine NBulkLine) inverter mult=1
xNOT_0_51 (TEMP_0_51 TEMP_1_51 vdd vss PBulkLine NBulkLine) inverter mult=1
xNOT_0_52 (TEMP_0_52 TEMP_1_52 vdd vss PBulkLine NBulkLine) inverter mult=1
xNOT_0_53 (TEMP_0_53 TEMP_1_53 vdd vss PBulkLine NBulkLine) inverter mult=1
xNOT_0_54 (TEMP_0_54 TEMP_1_54 vdd vss PBulkLine NBulkLine) inverter mult=1
xNOT_0_55 (TEMP_0_55 TEMP_1_55 vdd vss PBulkLine NBulkLine) inverter mult=1
xNOT_0_56 (TEMP_0_56 TEMP_1_56 vdd vss PBulkLine NBulkLine) inverter mult=1
xNOT_0_57 (TEMP_0_57 TEMP_1_57 vdd vss PBulkLine NBulkLine) inverter mult=1
xNOT_0_58 (TEMP_0_58 TEMP_1_58 vdd vss PBulkLine NBulkLine) inverter mult=1
xNOT_0_59 (TEMP_0_59 TEMP_1_59 vdd vss PBulkLine NBulkLine) inverter mult=1
xNOT_0_60 (TEMP_0_60 TEMP_1_60 vdd vss PBulkLine NBulkLine) inverter mult=1
xNOT_0_61 (TEMP_0_61 TEMP_1_61 vdd vss PBulkLine NBulkLine) inverter mult=1
xNOT_0_62 (TEMP_0_62 TEMP_1_62 vdd vss PBulkLine NBulkLine) inverter mult=1
xNOT_0_63 (TEMP_0_63 TEMP_1_63 vdd vss PBulkLine NBulkLine) inverter mult=1
xNOT_0_64 (TEMP_0_64 TEMP_1_64 vdd vss PBulkLine NBulkLine) inverter mult=1
xNOT_0_65 (TEMP_0_65 TEMP_1_65 vdd vss PBulkLine NBulkLine) inverter mult=1
xNOT_0_66 (TEMP_0_66 TEMP_1_66 vdd vss PBulkLine NBulkLine) inverter mult=1
xNOT_0_67 (TEMP_0_67 TEMP_1_67 vdd vss PBulkLine NBulkLine) inverter mult=1
xNOT_0_68 (TEMP_0_68 TEMP_1_68 vdd vss PBulkLine NBulkLine) inverter mult=1
xNOT_0_69 (TEMP_0_69 TEMP_1_69 vdd vss PBulkLine NBulkLine) inverter mult=1
xNOT_0_70 (TEMP_0_70 TEMP_1_70 vdd vss PBulkLine NBulkLine) inverter mult=1
xNOT_0_71 (TEMP_0_71 TEMP_1_71 vdd vss PBulkLine NBulkLine) inverter mult=1
xNOT_0_72 (TEMP_0_72 TEMP_1_72 vdd vss PBulkLine NBulkLine) inverter mult=1
xNOT_0_73 (TEMP_0_73 TEMP_1_73 vdd vss PBulkLine NBulkLine) inverter mult=1
xNOT_0_74 (TEMP_0_74 TEMP_1_74 vdd vss PBulkLine NBulkLine) inverter mult=1
xNOT_0_75 (TEMP_0_75 TEMP_1_75 vdd vss PBulkLine NBulkLine) inverter mult=1
xNOT_0_76 (TEMP_0_76 TEMP_1_76 vdd vss PBulkLine NBulkLine) inverter mult=1
xNOT_0_77 (TEMP_0_77 TEMP_1_77 vdd vss PBulkLine NBulkLine) inverter mult=1
xNOT_0_78 (TEMP_0_78 TEMP_1_78 vdd vss PBulkLine NBulkLine) inverter mult=1
xNOT_0_79 (TEMP_0_79 TEMP_1_79 vdd vss PBulkLine NBulkLine) inverter mult=1
xNOT_0_80 (TEMP_0_80 TEMP_1_80 vdd vss PBulkLine NBulkLine) inverter mult=1
xNOT_0_81 (TEMP_0_81 TEMP_1_81 vdd vss PBulkLine NBulkLine) inverter mult=1
xNOT_0_82 (TEMP_0_82 TEMP_1_82 vdd vss PBulkLine NBulkLine) inverter mult=1
xNOT_0_83 (TEMP_0_83 TEMP_1_83 vdd vss PBulkLine NBulkLine) inverter mult=1
xNOT_0_84 (TEMP_0_84 TEMP_1_84 vdd vss PBulkLine NBulkLine) inverter mult=1
xNOT_0_85 (TEMP_0_85 TEMP_1_85 vdd vss PBulkLine NBulkLine) inverter mult=1
xNOT_0_86 (TEMP_0_86 TEMP_1_86 vdd vss PBulkLine NBulkLine) inverter mult=1
xNOT_0_87 (TEMP_0_87 TEMP_1_87 vdd vss PBulkLine NBulkLine) inverter mult=1
xNOT_0_88 (TEMP_0_88 TEMP_1_88 vdd vss PBulkLine NBulkLine) inverter mult=1
xNOT_0_89 (TEMP_0_89 TEMP_1_89 vdd vss PBulkLine NBulkLine) inverter mult=1
xNOT_0_90 (TEMP_0_90 TEMP_1_90 vdd vss PBulkLine NBulkLine) inverter mult=1
xNOT_0_91 (TEMP_0_91 TEMP_1_91 vdd vss PBulkLine NBulkLine) inverter mult=1
xNOT_0_92 (TEMP_0_92 TEMP_1_92 vdd vss PBulkLine NBulkLine) inverter mult=1
xNOT_0_93 (TEMP_0_93 TEMP_1_93 vdd vss PBulkLine NBulkLine) inverter mult=1
xNOT_0_94 (TEMP_0_94 TEMP_1_94 vdd vss PBulkLine NBulkLine) inverter mult=1
xNOT_0_95 (TEMP_0_95 TEMP_1_95 vdd vss PBulkLine NBulkLine) inverter mult=1
xNOT_0_96 (TEMP_0_96 TEMP_1_96 vdd vss PBulkLine NBulkLine) inverter mult=1
xNOT_0_97 (TEMP_0_97 TEMP_1_97 vdd vss PBulkLine NBulkLine) inverter mult=1
xNOT_0_98 (TEMP_0_98 TEMP_1_98 vdd vss PBulkLine NBulkLine) inverter mult=1
xNOT_0_99 (TEMP_0_99 TEMP_1_99 vdd vss PBulkLine NBulkLine) inverter mult=1
xNOT_0_100 (TEMP_0_100 TEMP_1_100 vdd vss PBulkLine NBulkLine) inverter mult=1
xNOT_0_101 (TEMP_0_101 TEMP_1_101 vdd vss PBulkLine NBulkLine) inverter mult=1
xNOT_0_102 (TEMP_0_102 TEMP_1_102 vdd vss PBulkLine NBulkLine) inverter mult=1
xNOT_0_103 (TEMP_0_103 TEMP_1_103 vdd vss PBulkLine NBulkLine) inverter mult=1
xNOT_0_104 (TEMP_0_104 TEMP_1_104 vdd vss PBulkLine NBulkLine) inverter mult=1
xNOT_0_105 (TEMP_0_105 TEMP_1_105 vdd vss PBulkLine NBulkLine) inverter mult=1
xNOT_0_106 (TEMP_0_106 TEMP_1_106 vdd vss PBulkLine NBulkLine) inverter mult=1
xNOT_0_107 (TEMP_0_107 TEMP_1_107 vdd vss PBulkLine NBulkLine) inverter mult=1
xNOT_0_108 (TEMP_0_108 TEMP_1_108 vdd vss PBulkLine NBulkLine) inverter mult=1
xNOT_0_109 (TEMP_0_109 TEMP_1_109 vdd vss PBulkLine NBulkLine) inverter mult=1
xNOT_0_110 (TEMP_0_110 TEMP_1_110 vdd vss PBulkLine NBulkLine) inverter mult=1
xNOT_0_111 (TEMP_0_111 TEMP_1_111 vdd vss PBulkLine NBulkLine) inverter mult=1
xNOT_0_112 (TEMP_0_112 TEMP_1_112 vdd vss PBulkLine NBulkLine) inverter mult=1
xNOT_0_113 (TEMP_0_113 TEMP_1_113 vdd vss PBulkLine NBulkLine) inverter mult=1
xNOT_0_114 (TEMP_0_114 TEMP_1_114 vdd vss PBulkLine NBulkLine) inverter mult=1
xNOT_0_115 (TEMP_0_115 TEMP_1_115 vdd vss PBulkLine NBulkLine) inverter mult=1
xNOT_0_116 (TEMP_0_116 TEMP_1_116 vdd vss PBulkLine NBulkLine) inverter mult=1
xNOT_0_117 (TEMP_0_117 TEMP_1_117 vdd vss PBulkLine NBulkLine) inverter mult=1
xNOT_0_118 (TEMP_0_118 TEMP_1_118 vdd vss PBulkLine NBulkLine) inverter mult=1
xNOT_0_119 (TEMP_0_119 TEMP_1_119 vdd vss PBulkLine NBulkLine) inverter mult=1
xNOT_0_120 (TEMP_0_120 TEMP_1_120 vdd vss PBulkLine NBulkLine) inverter mult=1
xNOT_0_121 (TEMP_0_121 TEMP_1_121 vdd vss PBulkLine NBulkLine) inverter mult=1
xNOT_0_122 (TEMP_0_122 TEMP_1_122 vdd vss PBulkLine NBulkLine) inverter mult=1
xNOT_0_123 (TEMP_0_123 TEMP_1_123 vdd vss PBulkLine NBulkLine) inverter mult=1
xNOT_0_124 (TEMP_0_124 TEMP_1_124 vdd vss PBulkLine NBulkLine) inverter mult=1
xNOT_0_125 (TEMP_0_125 TEMP_1_125 vdd vss PBulkLine NBulkLine) inverter mult=1
xNOT_0_126 (TEMP_0_126 TEMP_1_126 vdd vss PBulkLine NBulkLine) inverter mult=1
xNOT_0_127 (TEMP_0_127 TEMP_1_127 vdd vss PBulkLine NBulkLine) inverter mult=1
xNOT_0_128 (TEMP_0_128 TEMP_1_128 vdd vss PBulkLine NBulkLine) inverter mult=1
xNOT_0_129 (TEMP_0_129 TEMP_1_129 vdd vss PBulkLine NBulkLine) inverter mult=1
xNOT_0_130 (TEMP_0_130 TEMP_1_130 vdd vss PBulkLine NBulkLine) inverter mult=1
xNOT_0_131 (TEMP_0_131 TEMP_1_131 vdd vss PBulkLine NBulkLine) inverter mult=1
xNOT_0_132 (TEMP_0_132 TEMP_1_132 vdd vss PBulkLine NBulkLine) inverter mult=1
xNOT_0_133 (TEMP_0_133 TEMP_1_133 vdd vss PBulkLine NBulkLine) inverter mult=1
xNOT_0_134 (TEMP_0_134 TEMP_1_134 vdd vss PBulkLine NBulkLine) inverter mult=1
xNOT_0_135 (TEMP_0_135 TEMP_1_135 vdd vss PBulkLine NBulkLine) inverter mult=1
xNOT_0_136 (TEMP_0_136 TEMP_1_136 vdd vss PBulkLine NBulkLine) inverter mult=1
xNOT_0_137 (TEMP_0_137 TEMP_1_137 vdd vss PBulkLine NBulkLine) inverter mult=1
xNOT_0_138 (TEMP_0_138 TEMP_1_138 vdd vss PBulkLine NBulkLine) inverter mult=1
xNOT_0_139 (TEMP_0_139 TEMP_1_139 vdd vss PBulkLine NBulkLine) inverter mult=1
xNOT_0_140 (TEMP_0_140 TEMP_1_140 vdd vss PBulkLine NBulkLine) inverter mult=1
xNOT_0_141 (TEMP_0_141 TEMP_1_141 vdd vss PBulkLine NBulkLine) inverter mult=1
xNOT_0_142 (TEMP_0_142 TEMP_1_142 vdd vss PBulkLine NBulkLine) inverter mult=1
xNOT_0_143 (TEMP_0_143 TEMP_1_143 vdd vss PBulkLine NBulkLine) inverter mult=1
xNOT_0_144 (TEMP_0_144 TEMP_1_144 vdd vss PBulkLine NBulkLine) inverter mult=1
xNOT_0_145 (TEMP_0_145 TEMP_1_145 vdd vss PBulkLine NBulkLine) inverter mult=1
xNOT_0_146 (TEMP_0_146 TEMP_1_146 vdd vss PBulkLine NBulkLine) inverter mult=1
xNOT_0_147 (TEMP_0_147 TEMP_1_147 vdd vss PBulkLine NBulkLine) inverter mult=1
xNOT_0_148 (TEMP_0_148 TEMP_1_148 vdd vss PBulkLine NBulkLine) inverter mult=1
xNOT_0_149 (TEMP_0_149 TEMP_1_149 vdd vss PBulkLine NBulkLine) inverter mult=1
xNOT_0_150 (TEMP_0_150 TEMP_1_150 vdd vss PBulkLine NBulkLine) inverter mult=1
xNOT_0_151 (TEMP_0_151 TEMP_1_151 vdd vss PBulkLine NBulkLine) inverter mult=1
xNOT_0_152 (TEMP_0_152 TEMP_1_152 vdd vss PBulkLine NBulkLine) inverter mult=1
xNOT_0_153 (TEMP_0_153 TEMP_1_153 vdd vss PBulkLine NBulkLine) inverter mult=1
xNOT_0_154 (TEMP_0_154 TEMP_1_154 vdd vss PBulkLine NBulkLine) inverter mult=1
xNOT_0_155 (TEMP_0_155 TEMP_1_155 vdd vss PBulkLine NBulkLine) inverter mult=1
xNOT_0_156 (TEMP_0_156 TEMP_1_156 vdd vss PBulkLine NBulkLine) inverter mult=1
xNOT_0_157 (TEMP_0_157 TEMP_1_157 vdd vss PBulkLine NBulkLine) inverter mult=1
xNOT_0_158 (TEMP_0_158 TEMP_1_158 vdd vss PBulkLine NBulkLine) inverter mult=1
xNOT_0_159 (TEMP_0_159 TEMP_1_159 vdd vss PBulkLine NBulkLine) inverter mult=1
xNOT_0_160 (TEMP_0_160 TEMP_1_160 vdd vss PBulkLine NBulkLine) inverter mult=1
xNOT_0_161 (TEMP_0_161 TEMP_1_161 vdd vss PBulkLine NBulkLine) inverter mult=1
xNOT_0_162 (TEMP_0_162 TEMP_1_162 vdd vss PBulkLine NBulkLine) inverter mult=1
xNOT_0_163 (TEMP_0_163 TEMP_1_163 vdd vss PBulkLine NBulkLine) inverter mult=1
xNOT_0_164 (TEMP_0_164 TEMP_1_164 vdd vss PBulkLine NBulkLine) inverter mult=1
xNOT_0_165 (TEMP_0_165 TEMP_1_165 vdd vss PBulkLine NBulkLine) inverter mult=1
xNOT_0_166 (TEMP_0_166 TEMP_1_166 vdd vss PBulkLine NBulkLine) inverter mult=1
xNOT_0_167 (TEMP_0_167 TEMP_1_167 vdd vss PBulkLine NBulkLine) inverter mult=1
xNOT_0_168 (TEMP_0_168 TEMP_1_168 vdd vss PBulkLine NBulkLine) inverter mult=1
xNOT_0_169 (TEMP_0_169 TEMP_1_169 vdd vss PBulkLine NBulkLine) inverter mult=1
xNOT_0_170 (TEMP_0_170 TEMP_1_170 vdd vss PBulkLine NBulkLine) inverter mult=1
xNOT_0_171 (TEMP_0_171 TEMP_1_171 vdd vss PBulkLine NBulkLine) inverter mult=1
xNOT_0_172 (TEMP_0_172 TEMP_1_172 vdd vss PBulkLine NBulkLine) inverter mult=1
xNOT_0_173 (TEMP_0_173 TEMP_1_173 vdd vss PBulkLine NBulkLine) inverter mult=1
xNOT_0_174 (TEMP_0_174 TEMP_1_174 vdd vss PBulkLine NBulkLine) inverter mult=1
xNOT_0_175 (TEMP_0_175 TEMP_1_175 vdd vss PBulkLine NBulkLine) inverter mult=1
xNOT_0_176 (TEMP_0_176 TEMP_1_176 vdd vss PBulkLine NBulkLine) inverter mult=1
xNOT_0_177 (TEMP_0_177 TEMP_1_177 vdd vss PBulkLine NBulkLine) inverter mult=1
xNOT_0_178 (TEMP_0_178 TEMP_1_178 vdd vss PBulkLine NBulkLine) inverter mult=1
xNOT_0_179 (TEMP_0_179 TEMP_1_179 vdd vss PBulkLine NBulkLine) inverter mult=1
xNOT_0_180 (TEMP_0_180 TEMP_1_180 vdd vss PBulkLine NBulkLine) inverter mult=1
xNOT_0_181 (TEMP_0_181 TEMP_1_181 vdd vss PBulkLine NBulkLine) inverter mult=1
xNOT_0_182 (TEMP_0_182 TEMP_1_182 vdd vss PBulkLine NBulkLine) inverter mult=1
xNOT_0_183 (TEMP_0_183 TEMP_1_183 vdd vss PBulkLine NBulkLine) inverter mult=1
xNOT_0_184 (TEMP_0_184 TEMP_1_184 vdd vss PBulkLine NBulkLine) inverter mult=1
xNOT_0_185 (TEMP_0_185 TEMP_1_185 vdd vss PBulkLine NBulkLine) inverter mult=1
xNOT_0_186 (TEMP_0_186 TEMP_1_186 vdd vss PBulkLine NBulkLine) inverter mult=1
xNOT_0_187 (TEMP_0_187 TEMP_1_187 vdd vss PBulkLine NBulkLine) inverter mult=1
xNOT_0_188 (TEMP_0_188 TEMP_1_188 vdd vss PBulkLine NBulkLine) inverter mult=1
xNOT_0_189 (TEMP_0_189 TEMP_1_189 vdd vss PBulkLine NBulkLine) inverter mult=1
xNOT_0_190 (TEMP_0_190 TEMP_1_190 vdd vss PBulkLine NBulkLine) inverter mult=1
xNOT_0_191 (TEMP_0_191 TEMP_1_191 vdd vss PBulkLine NBulkLine) inverter mult=1
xNOT_0_192 (TEMP_0_192 TEMP_1_192 vdd vss PBulkLine NBulkLine) inverter mult=1
xNOT_0_193 (TEMP_0_193 TEMP_1_193 vdd vss PBulkLine NBulkLine) inverter mult=1
xNOT_0_194 (TEMP_0_194 TEMP_1_194 vdd vss PBulkLine NBulkLine) inverter mult=1
xNOT_0_195 (TEMP_0_195 TEMP_1_195 vdd vss PBulkLine NBulkLine) inverter mult=1
xNOT_0_196 (TEMP_0_196 TEMP_1_196 vdd vss PBulkLine NBulkLine) inverter mult=1
xNOT_0_197 (TEMP_0_197 TEMP_1_197 vdd vss PBulkLine NBulkLine) inverter mult=1
xNOT_0_198 (TEMP_0_198 TEMP_1_198 vdd vss PBulkLine NBulkLine) inverter mult=1
xNOT_0_199 (TEMP_0_199 TEMP_1_199 vdd vss PBulkLine NBulkLine) inverter mult=1
xNOT_0_200 (TEMP_0_200 TEMP_1_200 vdd vss PBulkLine NBulkLine) inverter mult=1
xNOT_0_201 (TEMP_0_201 TEMP_1_201 vdd vss PBulkLine NBulkLine) inverter mult=1
xNOT_0_202 (TEMP_0_202 TEMP_1_202 vdd vss PBulkLine NBulkLine) inverter mult=1
xNOT_0_203 (TEMP_0_203 TEMP_1_203 vdd vss PBulkLine NBulkLine) inverter mult=1
xNOT_0_204 (TEMP_0_204 TEMP_1_204 vdd vss PBulkLine NBulkLine) inverter mult=1
xNOT_0_205 (TEMP_0_205 TEMP_1_205 vdd vss PBulkLine NBulkLine) inverter mult=1
xNOT_0_206 (TEMP_0_206 TEMP_1_206 vdd vss PBulkLine NBulkLine) inverter mult=1
xNOT_0_207 (TEMP_0_207 TEMP_1_207 vdd vss PBulkLine NBulkLine) inverter mult=1
xNOT_0_208 (TEMP_0_208 TEMP_1_208 vdd vss PBulkLine NBulkLine) inverter mult=1
xNOT_0_209 (TEMP_0_209 TEMP_1_209 vdd vss PBulkLine NBulkLine) inverter mult=1