// showcase for mismatch simulation

simulator lang=spectre

include "transistorsPTM.scs"
include "../../ArchitectureDesign/SPICE/decoder.sp"
include "../../ArchitectureDesign/SPICE/CMOSlogic.scs"
include "parameters.sp"

xdecoder (IN_0 IN_1 IN_2 IN_3 IN_4 IN_5 IN_6 IN_7 IN_8 IN_9 enable OUT_0 OUT_1 OUT_2 OUT_3 OUT_4 OUT_5 OUT_6 OUT_7 OUT_8 OUT_9 OUT_10 OUT_11 OUT_12 OUT_13 OUT_14 OUT_15 OUT_16 OUT_17 OUT_18 OUT_19 OUT_20 OUT_21 OUT_22 OUT_23 OUT_24 OUT_25 OUT_26 OUT_27 OUT_28 OUT_29 OUT_30 OUT_31 OUT_32 OUT_33 OUT_34 OUT_35 OUT_36 OUT_37 OUT_38 OUT_39 OUT_40 OUT_41 OUT_42 OUT_43 OUT_44 OUT_45 OUT_46 OUT_47 OUT_48 OUT_49 OUT_50 OUT_51 OUT_52 OUT_53 OUT_54 OUT_55 OUT_56 OUT_57 OUT_58 OUT_59 OUT_60 OUT_61 OUT_62 OUT_63 OUT_64 OUT_65 OUT_66 OUT_67 OUT_68 OUT_69 OUT_70 OUT_71 OUT_72 OUT_73 OUT_74 OUT_75 OUT_76 OUT_77 OUT_78 OUT_79 OUT_80 OUT_81 OUT_82 OUT_83 OUT_84 OUT_85 OUT_86 OUT_87 OUT_88 OUT_89 OUT_90 OUT_91 OUT_92 OUT_93 OUT_94 OUT_95 OUT_96 OUT_97 OUT_98 OUT_99 OUT_100 OUT_101 OUT_102 OUT_103 OUT_104 OUT_105 OUT_106 OUT_107 OUT_108 OUT_109 OUT_110 OUT_111 OUT_112 OUT_113 OUT_114 OUT_115 OUT_116 OUT_117 OUT_118 OUT_119 OUT_120 OUT_121 OUT_122 OUT_123 OUT_124 OUT_125 OUT_126 OUT_127 OUT_128 OUT_129 OUT_130 OUT_131 OUT_132 OUT_133 OUT_134 OUT_135 OUT_136 OUT_137 OUT_138 OUT_139 OUT_140 OUT_141 OUT_142 OUT_143 OUT_144 OUT_145 OUT_146 OUT_147 OUT_148 OUT_149 OUT_150 OUT_151 OUT_152 OUT_153 OUT_154 OUT_155 OUT_156 OUT_157 OUT_158 OUT_159 OUT_160 OUT_161 OUT_162 OUT_163 OUT_164 OUT_165 OUT_166 OUT_167 OUT_168 OUT_169 OUT_170 OUT_171 OUT_172 OUT_173 OUT_174 OUT_175 OUT_176 OUT_177 OUT_178 OUT_179 OUT_180 OUT_181 OUT_182 OUT_183 OUT_184 OUT_185 OUT_186 OUT_187 OUT_188 OUT_189 OUT_190 OUT_191 OUT_192 OUT_193 OUT_194 OUT_195 OUT_196 OUT_197 OUT_198 OUT_199 OUT_200 OUT_201 OUT_202 OUT_203 OUT_204 OUT_205 OUT_206 OUT_207 OUT_208 OUT_209 OUT_210 OUT_211 OUT_212 OUT_213 OUT_214 OUT_215 OUT_216 OUT_217 OUT_218 OUT_219 OUT_220 OUT_221 OUT_222 OUT_223 OUT_224 OUT_225 OUT_226 OUT_227 OUT_228 OUT_229 OUT_230 OUT_231 OUT_232 OUT_233 OUT_234 OUT_235 OUT_236 OUT_237 OUT_238 OUT_239 OUT_240 OUT_241 OUT_242 OUT_243 OUT_244 OUT_245 OUT_246 OUT_247 OUT_248 OUT_249 OUT_250 OUT_251 OUT_252 OUT_253 OUT_254 OUT_255 OUT_256 OUT_257 OUT_258 OUT_259 OUT_260 OUT_261 OUT_262 OUT_263 OUT_264 OUT_265 OUT_266 OUT_267 OUT_268 OUT_269 OUT_270 OUT_271 OUT_272 OUT_273 OUT_274 OUT_275 OUT_276 OUT_277 OUT_278 OUT_279 OUT_280 OUT_281 OUT_282 OUT_283 OUT_284 OUT_285 OUT_286 OUT_287 OUT_288 OUT_289 OUT_290 OUT_291 OUT_292 OUT_293 OUT_294 OUT_295 OUT_296 OUT_297 OUT_298 OUT_299 OUT_300 OUT_301 OUT_302 OUT_303 OUT_304 OUT_305 OUT_306 OUT_307 OUT_308 OUT_309 OUT_310 OUT_311 OUT_312 OUT_313 OUT_314 OUT_315 OUT_316 OUT_317 OUT_318 OUT_319 OUT_320 OUT_321 OUT_322 OUT_323 OUT_324 OUT_325 OUT_326 OUT_327 OUT_328 OUT_329 OUT_330 OUT_331 OUT_332 OUT_333 OUT_334 OUT_335 OUT_336 OUT_337 OUT_338 OUT_339 OUT_340 OUT_341 OUT_342 OUT_343 OUT_344 OUT_345 OUT_346 OUT_347 OUT_348 OUT_349 OUT_350 OUT_351 OUT_352 OUT_353 OUT_354 OUT_355 OUT_356 OUT_357 OUT_358 OUT_359 OUT_360 OUT_361 OUT_362 OUT_363 OUT_364 OUT_365 OUT_366 OUT_367 OUT_368 OUT_369 OUT_370 OUT_371 OUT_372 OUT_373 OUT_374 OUT_375 OUT_376 OUT_377 OUT_378 OUT_379 OUT_380 OUT_381 OUT_382 OUT_383 OUT_384 OUT_385 OUT_386 OUT_387 OUT_388 OUT_389 OUT_390 OUT_391 OUT_392 OUT_393 OUT_394 OUT_395 OUT_396 OUT_397 OUT_398 OUT_399 OUT_400 OUT_401 OUT_402 OUT_403 OUT_404 OUT_405 OUT_406 OUT_407 OUT_408 OUT_409 OUT_410 OUT_411 OUT_412 OUT_413 OUT_414 OUT_415 OUT_416 OUT_417 OUT_418 OUT_419 OUT_420 OUT_421 OUT_422 OUT_423 OUT_424 OUT_425 OUT_426 OUT_427 OUT_428 OUT_429 OUT_430 OUT_431 OUT_432 OUT_433 OUT_434 OUT_435 OUT_436 OUT_437 OUT_438 OUT_439 OUT_440 OUT_441 OUT_442 OUT_443 OUT_444 OUT_445 OUT_446 OUT_447 OUT_448 OUT_449 OUT_450 OUT_451 OUT_452 OUT_453 OUT_454 OUT_455 OUT_456 OUT_457 OUT_458 OUT_459 OUT_460 OUT_461 OUT_462 OUT_463 OUT_464 OUT_465 OUT_466 OUT_467 OUT_468 OUT_469 OUT_470 OUT_471 OUT_472 OUT_473 OUT_474 OUT_475 OUT_476 OUT_477 OUT_478 OUT_479 OUT_480 OUT_481 OUT_482 OUT_483 OUT_484 OUT_485 OUT_486 OUT_487 OUT_488 OUT_489 OUT_490 OUT_491 OUT_492 OUT_493 OUT_494 OUT_495 OUT_496 OUT_497 OUT_498 OUT_499 OUT_500 OUT_501 OUT_502 OUT_503 OUT_504 OUT_505 OUT_506 OUT_507 OUT_508 OUT_509 OUT_510 OUT_511 OUT_512 OUT_513 OUT_514 OUT_515 OUT_516 OUT_517 OUT_518 OUT_519 OUT_520 OUT_521 OUT_522 OUT_523 OUT_524 OUT_525 OUT_526 OUT_527 OUT_528 OUT_529 OUT_530 OUT_531 OUT_532 OUT_533 OUT_534 OUT_535 OUT_536 OUT_537 OUT_538 OUT_539 OUT_540 OUT_541 OUT_542 OUT_543 OUT_544 OUT_545 OUT_546 OUT_547 OUT_548 OUT_549 OUT_550 OUT_551 OUT_552 OUT_553 OUT_554 OUT_555 OUT_556 OUT_557 OUT_558 OUT_559 OUT_560 OUT_561 OUT_562 OUT_563 OUT_564 OUT_565 OUT_566 OUT_567 OUT_568 OUT_569 OUT_570 OUT_571 OUT_572 OUT_573 OUT_574 OUT_575 OUT_576 OUT_577 OUT_578 OUT_579 OUT_580 OUT_581 OUT_582 OUT_583 OUT_584 OUT_585 OUT_586 OUT_587 OUT_588 OUT_589 OUT_590 OUT_591 OUT_592 OUT_593 OUT_594 OUT_595 OUT_596 OUT_597 OUT_598 OUT_599 OUT_600 OUT_601 OUT_602 OUT_603 OUT_604 OUT_605 OUT_606 OUT_607 OUT_608 OUT_609 OUT_610 OUT_611 OUT_612 OUT_613 OUT_614 OUT_615 OUT_616 OUT_617 OUT_618 OUT_619 OUT_620 OUT_621 OUT_622 OUT_623 OUT_624 OUT_625 OUT_626 OUT_627 OUT_628 OUT_629 OUT_630 OUT_631 OUT_632 OUT_633 OUT_634 OUT_635 OUT_636 OUT_637 OUT_638 OUT_639 OUT_640 OUT_641 OUT_642 OUT_643 OUT_644 OUT_645 OUT_646 OUT_647 OUT_648 OUT_649 OUT_650 OUT_651 OUT_652 OUT_653 OUT_654 OUT_655 OUT_656 OUT_657 OUT_658 OUT_659 OUT_660 OUT_661 OUT_662 OUT_663 OUT_664 OUT_665 OUT_666 OUT_667 OUT_668 OUT_669 OUT_670 OUT_671 OUT_672 OUT_673 OUT_674 OUT_675 OUT_676 OUT_677 OUT_678 OUT_679 OUT_680 OUT_681 OUT_682 OUT_683 OUT_684 OUT_685 OUT_686 OUT_687 OUT_688 OUT_689 OUT_690 OUT_691 OUT_692 OUT_693 OUT_694 OUT_695 OUT_696 OUT_697 OUT_698 OUT_699 OUT_700 OUT_701 OUT_702 OUT_703 OUT_704 OUT_705 OUT_706 OUT_707 OUT_708 OUT_709 OUT_710 OUT_711 OUT_712 OUT_713 OUT_714 OUT_715 OUT_716 OUT_717 OUT_718 OUT_719 OUT_720 OUT_721 OUT_722 OUT_723 OUT_724 OUT_725 OUT_726 OUT_727 OUT_728 OUT_729 OUT_730 OUT_731 OUT_732 OUT_733 OUT_734 OUT_735 OUT_736 OUT_737 OUT_738 OUT_739 OUT_740 OUT_741 OUT_742 OUT_743 OUT_744 OUT_745 OUT_746 OUT_747 OUT_748 OUT_749 OUT_750 OUT_751 OUT_752 OUT_753 OUT_754 OUT_755 OUT_756 OUT_757 OUT_758 OUT_759 OUT_760 OUT_761 OUT_762 OUT_763 OUT_764 OUT_765 OUT_766 OUT_767 OUT_768 OUT_769 OUT_770 OUT_771 OUT_772 OUT_773 OUT_774 OUT_775 OUT_776 OUT_777 OUT_778 OUT_779 OUT_780 OUT_781 OUT_782 OUT_783 OUT_784 OUT_785 OUT_786 OUT_787 OUT_788 OUT_789 OUT_790 OUT_791 OUT_792 OUT_793 OUT_794 OUT_795 OUT_796 OUT_797 OUT_798 OUT_799 OUT_800 OUT_801 OUT_802 OUT_803 OUT_804 OUT_805 OUT_806 OUT_807 OUT_808 OUT_809 OUT_810 OUT_811 OUT_812 OUT_813 OUT_814 OUT_815 OUT_816 OUT_817 OUT_818 OUT_819 OUT_820 OUT_821 OUT_822 OUT_823 OUT_824 OUT_825 OUT_826 OUT_827 OUT_828 OUT_829 OUT_830 OUT_831 OUT_832 OUT_833 OUT_834 OUT_835 OUT_836 OUT_837 OUT_838 OUT_839 OUT_840 OUT_841 OUT_842 OUT_843 OUT_844 OUT_845 OUT_846 OUT_847 OUT_848 OUT_849 OUT_850 OUT_851 OUT_852 OUT_853 OUT_854 OUT_855 OUT_856 OUT_857 OUT_858 OUT_859 OUT_860 OUT_861 OUT_862 OUT_863 OUT_864 OUT_865 OUT_866 OUT_867 OUT_868 OUT_869 OUT_870 OUT_871 OUT_872 OUT_873 OUT_874 OUT_875 OUT_876 OUT_877 OUT_878 OUT_879 OUT_880 OUT_881 OUT_882 OUT_883 OUT_884 OUT_885 OUT_886 OUT_887 OUT_888 OUT_889 OUT_890 OUT_891 OUT_892 OUT_893 OUT_894 OUT_895 OUT_896 OUT_897 OUT_898 OUT_899 OUT_900 OUT_901 OUT_902 OUT_903 OUT_904 OUT_905 OUT_906 OUT_907 OUT_908 OUT_909 OUT_910 OUT_911 OUT_912 OUT_913 OUT_914 OUT_915 OUT_916 OUT_917 OUT_918 OUT_919 OUT_920 OUT_921 OUT_922 OUT_923 OUT_924 OUT_925 OUT_926 OUT_927 OUT_928 OUT_929 OUT_930 OUT_931 OUT_932 OUT_933 OUT_934 OUT_935 OUT_936 OUT_937 OUT_938 OUT_939 OUT_940 OUT_941 OUT_942 OUT_943 OUT_944 OUT_945 OUT_946 OUT_947 OUT_948 OUT_949 OUT_950 OUT_951 OUT_952 OUT_953 OUT_954 OUT_955 OUT_956 OUT_957 OUT_958 OUT_959 OUT_960 OUT_961 OUT_962 OUT_963 OUT_964 OUT_965 OUT_966 OUT_967 OUT_968 OUT_969 OUT_970 OUT_971 OUT_972 OUT_973 OUT_974 OUT_975 OUT_976 OUT_977 OUT_978 OUT_979 OUT_980 OUT_981 OUT_982 OUT_983 OUT_984 OUT_985 OUT_986 OUT_987 OUT_988 OUT_989 OUT_990 OUT_991 OUT_992 OUT_993 OUT_994 OUT_995 OUT_996 OUT_997 OUT_998 OUT_999 OUT_1000 OUT_1001 OUT_1002 OUT_1003 OUT_1004 OUT_1005 OUT_1006 OUT_1007 OUT_1008 OUT_1009 OUT_1010 OUT_1011 OUT_1012 OUT_1013 OUT_1014 OUT_1015 OUT_1016 OUT_1017 OUT_1018 OUT_1019 OUT_1020 OUT_1021 OUT_1022 OUT_1023 vdd vss NBulkLine PBulkLine) decoderten

Vvdd     ( vdd     0 ) vsource dc=1
VvddBulk ( PBulkLine 0 ) vsource dc=1
Vvss     ( vss     0 ) vsource dc=0
VvssBulk ( NBulkLine 0 ) vsource dc=0

xinv_0 (OUT_0 whatevs_0 vdd vss PBulkLine NBulkLine) inverter
xinv_1 (OUT_1 whatevs_1 vdd vss PBulkLine NBulkLine) inverter
xinv_2 (OUT_2 whatevs_2 vdd vss PBulkLine NBulkLine) inverter
xinv_3 (OUT_3 whatevs_3 vdd vss PBulkLine NBulkLine) inverter
xinv_4 (OUT_4 whatevs_4 vdd vss PBulkLine NBulkLine) inverter
xinv_5 (OUT_5 whatevs_5 vdd vss PBulkLine NBulkLine) inverter
xinv_6 (OUT_6 whatevs_6 vdd vss PBulkLine NBulkLine) inverter
xinv_7 (OUT_7 whatevs_7 vdd vss PBulkLine NBulkLine) inverter
xinv_8 (OUT_8 whatevs_8 vdd vss PBulkLine NBulkLine) inverter
xinv_9 (OUT_9 whatevs_9 vdd vss PBulkLine NBulkLine) inverter
xinv_10 (OUT_10 whatevs_10 vdd vss PBulkLine NBulkLine) inverter
xinv_11 (OUT_11 whatevs_11 vdd vss PBulkLine NBulkLine) inverter
xinv_12 (OUT_12 whatevs_12 vdd vss PBulkLine NBulkLine) inverter
xinv_13 (OUT_13 whatevs_13 vdd vss PBulkLine NBulkLine) inverter
xinv_14 (OUT_14 whatevs_14 vdd vss PBulkLine NBulkLine) inverter
xinv_15 (OUT_15 whatevs_15 vdd vss PBulkLine NBulkLine) inverter
xinv_16 (OUT_16 whatevs_16 vdd vss PBulkLine NBulkLine) inverter
xinv_17 (OUT_17 whatevs_17 vdd vss PBulkLine NBulkLine) inverter
xinv_18 (OUT_18 whatevs_18 vdd vss PBulkLine NBulkLine) inverter
xinv_19 (OUT_19 whatevs_19 vdd vss PBulkLine NBulkLine) inverter
xinv_20 (OUT_20 whatevs_20 vdd vss PBulkLine NBulkLine) inverter
xinv_21 (OUT_21 whatevs_21 vdd vss PBulkLine NBulkLine) inverter
xinv_22 (OUT_22 whatevs_22 vdd vss PBulkLine NBulkLine) inverter
xinv_23 (OUT_23 whatevs_23 vdd vss PBulkLine NBulkLine) inverter
xinv_24 (OUT_24 whatevs_24 vdd vss PBulkLine NBulkLine) inverter
xinv_25 (OUT_25 whatevs_25 vdd vss PBulkLine NBulkLine) inverter
xinv_26 (OUT_26 whatevs_26 vdd vss PBulkLine NBulkLine) inverter
xinv_27 (OUT_27 whatevs_27 vdd vss PBulkLine NBulkLine) inverter
xinv_28 (OUT_28 whatevs_28 vdd vss PBulkLine NBulkLine) inverter
xinv_29 (OUT_29 whatevs_29 vdd vss PBulkLine NBulkLine) inverter
xinv_30 (OUT_30 whatevs_30 vdd vss PBulkLine NBulkLine) inverter
xinv_31 (OUT_31 whatevs_31 vdd vss PBulkLine NBulkLine) inverter
xinv_32 (OUT_32 whatevs_32 vdd vss PBulkLine NBulkLine) inverter
xinv_33 (OUT_33 whatevs_33 vdd vss PBulkLine NBulkLine) inverter
xinv_34 (OUT_34 whatevs_34 vdd vss PBulkLine NBulkLine) inverter
xinv_35 (OUT_35 whatevs_35 vdd vss PBulkLine NBulkLine) inverter
xinv_36 (OUT_36 whatevs_36 vdd vss PBulkLine NBulkLine) inverter
xinv_37 (OUT_37 whatevs_37 vdd vss PBulkLine NBulkLine) inverter
xinv_38 (OUT_38 whatevs_38 vdd vss PBulkLine NBulkLine) inverter
xinv_39 (OUT_39 whatevs_39 vdd vss PBulkLine NBulkLine) inverter
xinv_40 (OUT_40 whatevs_40 vdd vss PBulkLine NBulkLine) inverter
xinv_41 (OUT_41 whatevs_41 vdd vss PBulkLine NBulkLine) inverter
xinv_42 (OUT_42 whatevs_42 vdd vss PBulkLine NBulkLine) inverter
xinv_43 (OUT_43 whatevs_43 vdd vss PBulkLine NBulkLine) inverter
xinv_44 (OUT_44 whatevs_44 vdd vss PBulkLine NBulkLine) inverter
xinv_45 (OUT_45 whatevs_45 vdd vss PBulkLine NBulkLine) inverter
xinv_46 (OUT_46 whatevs_46 vdd vss PBulkLine NBulkLine) inverter
xinv_47 (OUT_47 whatevs_47 vdd vss PBulkLine NBulkLine) inverter
xinv_48 (OUT_48 whatevs_48 vdd vss PBulkLine NBulkLine) inverter
xinv_49 (OUT_49 whatevs_49 vdd vss PBulkLine NBulkLine) inverter
xinv_50 (OUT_50 whatevs_50 vdd vss PBulkLine NBulkLine) inverter
xinv_51 (OUT_51 whatevs_51 vdd vss PBulkLine NBulkLine) inverter
xinv_52 (OUT_52 whatevs_52 vdd vss PBulkLine NBulkLine) inverter
xinv_53 (OUT_53 whatevs_53 vdd vss PBulkLine NBulkLine) inverter
xinv_54 (OUT_54 whatevs_54 vdd vss PBulkLine NBulkLine) inverter
xinv_55 (OUT_55 whatevs_55 vdd vss PBulkLine NBulkLine) inverter
xinv_56 (OUT_56 whatevs_56 vdd vss PBulkLine NBulkLine) inverter
xinv_57 (OUT_57 whatevs_57 vdd vss PBulkLine NBulkLine) inverter
xinv_58 (OUT_58 whatevs_58 vdd vss PBulkLine NBulkLine) inverter
xinv_59 (OUT_59 whatevs_59 vdd vss PBulkLine NBulkLine) inverter
xinv_60 (OUT_60 whatevs_60 vdd vss PBulkLine NBulkLine) inverter
xinv_61 (OUT_61 whatevs_61 vdd vss PBulkLine NBulkLine) inverter
xinv_62 (OUT_62 whatevs_62 vdd vss PBulkLine NBulkLine) inverter
xinv_63 (OUT_63 whatevs_63 vdd vss PBulkLine NBulkLine) inverter
xinv_64 (OUT_64 whatevs_64 vdd vss PBulkLine NBulkLine) inverter
xinv_65 (OUT_65 whatevs_65 vdd vss PBulkLine NBulkLine) inverter
xinv_66 (OUT_66 whatevs_66 vdd vss PBulkLine NBulkLine) inverter
xinv_67 (OUT_67 whatevs_67 vdd vss PBulkLine NBulkLine) inverter
xinv_68 (OUT_68 whatevs_68 vdd vss PBulkLine NBulkLine) inverter
xinv_69 (OUT_69 whatevs_69 vdd vss PBulkLine NBulkLine) inverter
xinv_70 (OUT_70 whatevs_70 vdd vss PBulkLine NBulkLine) inverter
xinv_71 (OUT_71 whatevs_71 vdd vss PBulkLine NBulkLine) inverter
xinv_72 (OUT_72 whatevs_72 vdd vss PBulkLine NBulkLine) inverter
xinv_73 (OUT_73 whatevs_73 vdd vss PBulkLine NBulkLine) inverter
xinv_74 (OUT_74 whatevs_74 vdd vss PBulkLine NBulkLine) inverter
xinv_75 (OUT_75 whatevs_75 vdd vss PBulkLine NBulkLine) inverter
xinv_76 (OUT_76 whatevs_76 vdd vss PBulkLine NBulkLine) inverter
xinv_77 (OUT_77 whatevs_77 vdd vss PBulkLine NBulkLine) inverter
xinv_78 (OUT_78 whatevs_78 vdd vss PBulkLine NBulkLine) inverter
xinv_79 (OUT_79 whatevs_79 vdd vss PBulkLine NBulkLine) inverter
xinv_80 (OUT_80 whatevs_80 vdd vss PBulkLine NBulkLine) inverter
xinv_81 (OUT_81 whatevs_81 vdd vss PBulkLine NBulkLine) inverter
xinv_82 (OUT_82 whatevs_82 vdd vss PBulkLine NBulkLine) inverter
xinv_83 (OUT_83 whatevs_83 vdd vss PBulkLine NBulkLine) inverter
xinv_84 (OUT_84 whatevs_84 vdd vss PBulkLine NBulkLine) inverter
xinv_85 (OUT_85 whatevs_85 vdd vss PBulkLine NBulkLine) inverter
xinv_86 (OUT_86 whatevs_86 vdd vss PBulkLine NBulkLine) inverter
xinv_87 (OUT_87 whatevs_87 vdd vss PBulkLine NBulkLine) inverter
xinv_88 (OUT_88 whatevs_88 vdd vss PBulkLine NBulkLine) inverter
xinv_89 (OUT_89 whatevs_89 vdd vss PBulkLine NBulkLine) inverter
xinv_90 (OUT_90 whatevs_90 vdd vss PBulkLine NBulkLine) inverter
xinv_91 (OUT_91 whatevs_91 vdd vss PBulkLine NBulkLine) inverter
xinv_92 (OUT_92 whatevs_92 vdd vss PBulkLine NBulkLine) inverter
xinv_93 (OUT_93 whatevs_93 vdd vss PBulkLine NBulkLine) inverter
xinv_94 (OUT_94 whatevs_94 vdd vss PBulkLine NBulkLine) inverter
xinv_95 (OUT_95 whatevs_95 vdd vss PBulkLine NBulkLine) inverter
xinv_96 (OUT_96 whatevs_96 vdd vss PBulkLine NBulkLine) inverter
xinv_97 (OUT_97 whatevs_97 vdd vss PBulkLine NBulkLine) inverter
xinv_98 (OUT_98 whatevs_98 vdd vss PBulkLine NBulkLine) inverter
xinv_99 (OUT_99 whatevs_99 vdd vss PBulkLine NBulkLine) inverter
xinv_100 (OUT_100 whatevs_100 vdd vss PBulkLine NBulkLine) inverter
xinv_101 (OUT_101 whatevs_101 vdd vss PBulkLine NBulkLine) inverter
xinv_102 (OUT_102 whatevs_102 vdd vss PBulkLine NBulkLine) inverter
xinv_103 (OUT_103 whatevs_103 vdd vss PBulkLine NBulkLine) inverter
xinv_104 (OUT_104 whatevs_104 vdd vss PBulkLine NBulkLine) inverter
xinv_105 (OUT_105 whatevs_105 vdd vss PBulkLine NBulkLine) inverter
xinv_106 (OUT_106 whatevs_106 vdd vss PBulkLine NBulkLine) inverter
xinv_107 (OUT_107 whatevs_107 vdd vss PBulkLine NBulkLine) inverter
xinv_108 (OUT_108 whatevs_108 vdd vss PBulkLine NBulkLine) inverter
xinv_109 (OUT_109 whatevs_109 vdd vss PBulkLine NBulkLine) inverter
xinv_110 (OUT_110 whatevs_110 vdd vss PBulkLine NBulkLine) inverter
xinv_111 (OUT_111 whatevs_111 vdd vss PBulkLine NBulkLine) inverter
xinv_112 (OUT_112 whatevs_112 vdd vss PBulkLine NBulkLine) inverter
xinv_113 (OUT_113 whatevs_113 vdd vss PBulkLine NBulkLine) inverter
xinv_114 (OUT_114 whatevs_114 vdd vss PBulkLine NBulkLine) inverter
xinv_115 (OUT_115 whatevs_115 vdd vss PBulkLine NBulkLine) inverter
xinv_116 (OUT_116 whatevs_116 vdd vss PBulkLine NBulkLine) inverter
xinv_117 (OUT_117 whatevs_117 vdd vss PBulkLine NBulkLine) inverter
xinv_118 (OUT_118 whatevs_118 vdd vss PBulkLine NBulkLine) inverter
xinv_119 (OUT_119 whatevs_119 vdd vss PBulkLine NBulkLine) inverter
xinv_120 (OUT_120 whatevs_120 vdd vss PBulkLine NBulkLine) inverter
xinv_121 (OUT_121 whatevs_121 vdd vss PBulkLine NBulkLine) inverter
xinv_122 (OUT_122 whatevs_122 vdd vss PBulkLine NBulkLine) inverter
xinv_123 (OUT_123 whatevs_123 vdd vss PBulkLine NBulkLine) inverter
xinv_124 (OUT_124 whatevs_124 vdd vss PBulkLine NBulkLine) inverter
xinv_125 (OUT_125 whatevs_125 vdd vss PBulkLine NBulkLine) inverter
xinv_126 (OUT_126 whatevs_126 vdd vss PBulkLine NBulkLine) inverter
xinv_127 (OUT_127 whatevs_127 vdd vss PBulkLine NBulkLine) inverter
xinv_128 (OUT_128 whatevs_128 vdd vss PBulkLine NBulkLine) inverter
xinv_129 (OUT_129 whatevs_129 vdd vss PBulkLine NBulkLine) inverter
xinv_130 (OUT_130 whatevs_130 vdd vss PBulkLine NBulkLine) inverter
xinv_131 (OUT_131 whatevs_131 vdd vss PBulkLine NBulkLine) inverter
xinv_132 (OUT_132 whatevs_132 vdd vss PBulkLine NBulkLine) inverter
xinv_133 (OUT_133 whatevs_133 vdd vss PBulkLine NBulkLine) inverter
xinv_134 (OUT_134 whatevs_134 vdd vss PBulkLine NBulkLine) inverter
xinv_135 (OUT_135 whatevs_135 vdd vss PBulkLine NBulkLine) inverter
xinv_136 (OUT_136 whatevs_136 vdd vss PBulkLine NBulkLine) inverter
xinv_137 (OUT_137 whatevs_137 vdd vss PBulkLine NBulkLine) inverter
xinv_138 (OUT_138 whatevs_138 vdd vss PBulkLine NBulkLine) inverter
xinv_139 (OUT_139 whatevs_139 vdd vss PBulkLine NBulkLine) inverter
xinv_140 (OUT_140 whatevs_140 vdd vss PBulkLine NBulkLine) inverter
xinv_141 (OUT_141 whatevs_141 vdd vss PBulkLine NBulkLine) inverter
xinv_142 (OUT_142 whatevs_142 vdd vss PBulkLine NBulkLine) inverter
xinv_143 (OUT_143 whatevs_143 vdd vss PBulkLine NBulkLine) inverter
xinv_144 (OUT_144 whatevs_144 vdd vss PBulkLine NBulkLine) inverter
xinv_145 (OUT_145 whatevs_145 vdd vss PBulkLine NBulkLine) inverter
xinv_146 (OUT_146 whatevs_146 vdd vss PBulkLine NBulkLine) inverter
xinv_147 (OUT_147 whatevs_147 vdd vss PBulkLine NBulkLine) inverter
xinv_148 (OUT_148 whatevs_148 vdd vss PBulkLine NBulkLine) inverter
xinv_149 (OUT_149 whatevs_149 vdd vss PBulkLine NBulkLine) inverter
xinv_150 (OUT_150 whatevs_150 vdd vss PBulkLine NBulkLine) inverter
xinv_151 (OUT_151 whatevs_151 vdd vss PBulkLine NBulkLine) inverter
xinv_152 (OUT_152 whatevs_152 vdd vss PBulkLine NBulkLine) inverter
xinv_153 (OUT_153 whatevs_153 vdd vss PBulkLine NBulkLine) inverter
xinv_154 (OUT_154 whatevs_154 vdd vss PBulkLine NBulkLine) inverter
xinv_155 (OUT_155 whatevs_155 vdd vss PBulkLine NBulkLine) inverter
xinv_156 (OUT_156 whatevs_156 vdd vss PBulkLine NBulkLine) inverter
xinv_157 (OUT_157 whatevs_157 vdd vss PBulkLine NBulkLine) inverter
xinv_158 (OUT_158 whatevs_158 vdd vss PBulkLine NBulkLine) inverter
xinv_159 (OUT_159 whatevs_159 vdd vss PBulkLine NBulkLine) inverter
xinv_160 (OUT_160 whatevs_160 vdd vss PBulkLine NBulkLine) inverter
xinv_161 (OUT_161 whatevs_161 vdd vss PBulkLine NBulkLine) inverter
xinv_162 (OUT_162 whatevs_162 vdd vss PBulkLine NBulkLine) inverter
xinv_163 (OUT_163 whatevs_163 vdd vss PBulkLine NBulkLine) inverter
xinv_164 (OUT_164 whatevs_164 vdd vss PBulkLine NBulkLine) inverter
xinv_165 (OUT_165 whatevs_165 vdd vss PBulkLine NBulkLine) inverter
xinv_166 (OUT_166 whatevs_166 vdd vss PBulkLine NBulkLine) inverter
xinv_167 (OUT_167 whatevs_167 vdd vss PBulkLine NBulkLine) inverter
xinv_168 (OUT_168 whatevs_168 vdd vss PBulkLine NBulkLine) inverter
xinv_169 (OUT_169 whatevs_169 vdd vss PBulkLine NBulkLine) inverter
xinv_170 (OUT_170 whatevs_170 vdd vss PBulkLine NBulkLine) inverter
xinv_171 (OUT_171 whatevs_171 vdd vss PBulkLine NBulkLine) inverter
xinv_172 (OUT_172 whatevs_172 vdd vss PBulkLine NBulkLine) inverter
xinv_173 (OUT_173 whatevs_173 vdd vss PBulkLine NBulkLine) inverter
xinv_174 (OUT_174 whatevs_174 vdd vss PBulkLine NBulkLine) inverter
xinv_175 (OUT_175 whatevs_175 vdd vss PBulkLine NBulkLine) inverter
xinv_176 (OUT_176 whatevs_176 vdd vss PBulkLine NBulkLine) inverter
xinv_177 (OUT_177 whatevs_177 vdd vss PBulkLine NBulkLine) inverter
xinv_178 (OUT_178 whatevs_178 vdd vss PBulkLine NBulkLine) inverter
xinv_179 (OUT_179 whatevs_179 vdd vss PBulkLine NBulkLine) inverter
xinv_180 (OUT_180 whatevs_180 vdd vss PBulkLine NBulkLine) inverter
xinv_181 (OUT_181 whatevs_181 vdd vss PBulkLine NBulkLine) inverter
xinv_182 (OUT_182 whatevs_182 vdd vss PBulkLine NBulkLine) inverter
xinv_183 (OUT_183 whatevs_183 vdd vss PBulkLine NBulkLine) inverter
xinv_184 (OUT_184 whatevs_184 vdd vss PBulkLine NBulkLine) inverter
xinv_185 (OUT_185 whatevs_185 vdd vss PBulkLine NBulkLine) inverter
xinv_186 (OUT_186 whatevs_186 vdd vss PBulkLine NBulkLine) inverter
xinv_187 (OUT_187 whatevs_187 vdd vss PBulkLine NBulkLine) inverter
xinv_188 (OUT_188 whatevs_188 vdd vss PBulkLine NBulkLine) inverter
xinv_189 (OUT_189 whatevs_189 vdd vss PBulkLine NBulkLine) inverter
xinv_190 (OUT_190 whatevs_190 vdd vss PBulkLine NBulkLine) inverter
xinv_191 (OUT_191 whatevs_191 vdd vss PBulkLine NBulkLine) inverter
xinv_192 (OUT_192 whatevs_192 vdd vss PBulkLine NBulkLine) inverter
xinv_193 (OUT_193 whatevs_193 vdd vss PBulkLine NBulkLine) inverter
xinv_194 (OUT_194 whatevs_194 vdd vss PBulkLine NBulkLine) inverter
xinv_195 (OUT_195 whatevs_195 vdd vss PBulkLine NBulkLine) inverter
xinv_196 (OUT_196 whatevs_196 vdd vss PBulkLine NBulkLine) inverter
xinv_197 (OUT_197 whatevs_197 vdd vss PBulkLine NBulkLine) inverter
xinv_198 (OUT_198 whatevs_198 vdd vss PBulkLine NBulkLine) inverter
xinv_199 (OUT_199 whatevs_199 vdd vss PBulkLine NBulkLine) inverter
xinv_200 (OUT_200 whatevs_200 vdd vss PBulkLine NBulkLine) inverter
xinv_201 (OUT_201 whatevs_201 vdd vss PBulkLine NBulkLine) inverter
xinv_202 (OUT_202 whatevs_202 vdd vss PBulkLine NBulkLine) inverter
xinv_203 (OUT_203 whatevs_203 vdd vss PBulkLine NBulkLine) inverter
xinv_204 (OUT_204 whatevs_204 vdd vss PBulkLine NBulkLine) inverter
xinv_205 (OUT_205 whatevs_205 vdd vss PBulkLine NBulkLine) inverter
xinv_206 (OUT_206 whatevs_206 vdd vss PBulkLine NBulkLine) inverter
xinv_207 (OUT_207 whatevs_207 vdd vss PBulkLine NBulkLine) inverter
xinv_208 (OUT_208 whatevs_208 vdd vss PBulkLine NBulkLine) inverter
xinv_209 (OUT_209 whatevs_209 vdd vss PBulkLine NBulkLine) inverter
xinv_210 (OUT_210 whatevs_210 vdd vss PBulkLine NBulkLine) inverter
xinv_211 (OUT_211 whatevs_211 vdd vss PBulkLine NBulkLine) inverter
xinv_212 (OUT_212 whatevs_212 vdd vss PBulkLine NBulkLine) inverter
xinv_213 (OUT_213 whatevs_213 vdd vss PBulkLine NBulkLine) inverter
xinv_214 (OUT_214 whatevs_214 vdd vss PBulkLine NBulkLine) inverter
xinv_215 (OUT_215 whatevs_215 vdd vss PBulkLine NBulkLine) inverter
xinv_216 (OUT_216 whatevs_216 vdd vss PBulkLine NBulkLine) inverter
xinv_217 (OUT_217 whatevs_217 vdd vss PBulkLine NBulkLine) inverter
xinv_218 (OUT_218 whatevs_218 vdd vss PBulkLine NBulkLine) inverter
xinv_219 (OUT_219 whatevs_219 vdd vss PBulkLine NBulkLine) inverter
xinv_220 (OUT_220 whatevs_220 vdd vss PBulkLine NBulkLine) inverter
xinv_221 (OUT_221 whatevs_221 vdd vss PBulkLine NBulkLine) inverter
xinv_222 (OUT_222 whatevs_222 vdd vss PBulkLine NBulkLine) inverter
xinv_223 (OUT_223 whatevs_223 vdd vss PBulkLine NBulkLine) inverter
xinv_224 (OUT_224 whatevs_224 vdd vss PBulkLine NBulkLine) inverter
xinv_225 (OUT_225 whatevs_225 vdd vss PBulkLine NBulkLine) inverter
xinv_226 (OUT_226 whatevs_226 vdd vss PBulkLine NBulkLine) inverter
xinv_227 (OUT_227 whatevs_227 vdd vss PBulkLine NBulkLine) inverter
xinv_228 (OUT_228 whatevs_228 vdd vss PBulkLine NBulkLine) inverter
xinv_229 (OUT_229 whatevs_229 vdd vss PBulkLine NBulkLine) inverter
xinv_230 (OUT_230 whatevs_230 vdd vss PBulkLine NBulkLine) inverter
xinv_231 (OUT_231 whatevs_231 vdd vss PBulkLine NBulkLine) inverter
xinv_232 (OUT_232 whatevs_232 vdd vss PBulkLine NBulkLine) inverter
xinv_233 (OUT_233 whatevs_233 vdd vss PBulkLine NBulkLine) inverter
xinv_234 (OUT_234 whatevs_234 vdd vss PBulkLine NBulkLine) inverter
xinv_235 (OUT_235 whatevs_235 vdd vss PBulkLine NBulkLine) inverter
xinv_236 (OUT_236 whatevs_236 vdd vss PBulkLine NBulkLine) inverter
xinv_237 (OUT_237 whatevs_237 vdd vss PBulkLine NBulkLine) inverter
xinv_238 (OUT_238 whatevs_238 vdd vss PBulkLine NBulkLine) inverter
xinv_239 (OUT_239 whatevs_239 vdd vss PBulkLine NBulkLine) inverter
xinv_240 (OUT_240 whatevs_240 vdd vss PBulkLine NBulkLine) inverter
xinv_241 (OUT_241 whatevs_241 vdd vss PBulkLine NBulkLine) inverter
xinv_242 (OUT_242 whatevs_242 vdd vss PBulkLine NBulkLine) inverter
xinv_243 (OUT_243 whatevs_243 vdd vss PBulkLine NBulkLine) inverter
xinv_244 (OUT_244 whatevs_244 vdd vss PBulkLine NBulkLine) inverter
xinv_245 (OUT_245 whatevs_245 vdd vss PBulkLine NBulkLine) inverter
xinv_246 (OUT_246 whatevs_246 vdd vss PBulkLine NBulkLine) inverter
xinv_247 (OUT_247 whatevs_247 vdd vss PBulkLine NBulkLine) inverter
xinv_248 (OUT_248 whatevs_248 vdd vss PBulkLine NBulkLine) inverter
xinv_249 (OUT_249 whatevs_249 vdd vss PBulkLine NBulkLine) inverter
xinv_250 (OUT_250 whatevs_250 vdd vss PBulkLine NBulkLine) inverter
xinv_251 (OUT_251 whatevs_251 vdd vss PBulkLine NBulkLine) inverter
xinv_252 (OUT_252 whatevs_252 vdd vss PBulkLine NBulkLine) inverter
xinv_253 (OUT_253 whatevs_253 vdd vss PBulkLine NBulkLine) inverter
xinv_254 (OUT_254 whatevs_254 vdd vss PBulkLine NBulkLine) inverter
xinv_255 (OUT_255 whatevs_255 vdd vss PBulkLine NBulkLine) inverter
xinv_256 (OUT_256 whatevs_256 vdd vss PBulkLine NBulkLine) inverter
xinv_257 (OUT_257 whatevs_257 vdd vss PBulkLine NBulkLine) inverter
xinv_258 (OUT_258 whatevs_258 vdd vss PBulkLine NBulkLine) inverter
xinv_259 (OUT_259 whatevs_259 vdd vss PBulkLine NBulkLine) inverter
xinv_260 (OUT_260 whatevs_260 vdd vss PBulkLine NBulkLine) inverter
xinv_261 (OUT_261 whatevs_261 vdd vss PBulkLine NBulkLine) inverter
xinv_262 (OUT_262 whatevs_262 vdd vss PBulkLine NBulkLine) inverter
xinv_263 (OUT_263 whatevs_263 vdd vss PBulkLine NBulkLine) inverter
xinv_264 (OUT_264 whatevs_264 vdd vss PBulkLine NBulkLine) inverter
xinv_265 (OUT_265 whatevs_265 vdd vss PBulkLine NBulkLine) inverter
xinv_266 (OUT_266 whatevs_266 vdd vss PBulkLine NBulkLine) inverter
xinv_267 (OUT_267 whatevs_267 vdd vss PBulkLine NBulkLine) inverter
xinv_268 (OUT_268 whatevs_268 vdd vss PBulkLine NBulkLine) inverter
xinv_269 (OUT_269 whatevs_269 vdd vss PBulkLine NBulkLine) inverter
xinv_270 (OUT_270 whatevs_270 vdd vss PBulkLine NBulkLine) inverter
xinv_271 (OUT_271 whatevs_271 vdd vss PBulkLine NBulkLine) inverter
xinv_272 (OUT_272 whatevs_272 vdd vss PBulkLine NBulkLine) inverter
xinv_273 (OUT_273 whatevs_273 vdd vss PBulkLine NBulkLine) inverter
xinv_274 (OUT_274 whatevs_274 vdd vss PBulkLine NBulkLine) inverter
xinv_275 (OUT_275 whatevs_275 vdd vss PBulkLine NBulkLine) inverter
xinv_276 (OUT_276 whatevs_276 vdd vss PBulkLine NBulkLine) inverter
xinv_277 (OUT_277 whatevs_277 vdd vss PBulkLine NBulkLine) inverter
xinv_278 (OUT_278 whatevs_278 vdd vss PBulkLine NBulkLine) inverter
xinv_279 (OUT_279 whatevs_279 vdd vss PBulkLine NBulkLine) inverter
xinv_280 (OUT_280 whatevs_280 vdd vss PBulkLine NBulkLine) inverter
xinv_281 (OUT_281 whatevs_281 vdd vss PBulkLine NBulkLine) inverter
xinv_282 (OUT_282 whatevs_282 vdd vss PBulkLine NBulkLine) inverter
xinv_283 (OUT_283 whatevs_283 vdd vss PBulkLine NBulkLine) inverter
xinv_284 (OUT_284 whatevs_284 vdd vss PBulkLine NBulkLine) inverter
xinv_285 (OUT_285 whatevs_285 vdd vss PBulkLine NBulkLine) inverter
xinv_286 (OUT_286 whatevs_286 vdd vss PBulkLine NBulkLine) inverter
xinv_287 (OUT_287 whatevs_287 vdd vss PBulkLine NBulkLine) inverter
xinv_288 (OUT_288 whatevs_288 vdd vss PBulkLine NBulkLine) inverter
xinv_289 (OUT_289 whatevs_289 vdd vss PBulkLine NBulkLine) inverter
xinv_290 (OUT_290 whatevs_290 vdd vss PBulkLine NBulkLine) inverter
xinv_291 (OUT_291 whatevs_291 vdd vss PBulkLine NBulkLine) inverter
xinv_292 (OUT_292 whatevs_292 vdd vss PBulkLine NBulkLine) inverter
xinv_293 (OUT_293 whatevs_293 vdd vss PBulkLine NBulkLine) inverter
xinv_294 (OUT_294 whatevs_294 vdd vss PBulkLine NBulkLine) inverter
xinv_295 (OUT_295 whatevs_295 vdd vss PBulkLine NBulkLine) inverter
xinv_296 (OUT_296 whatevs_296 vdd vss PBulkLine NBulkLine) inverter
xinv_297 (OUT_297 whatevs_297 vdd vss PBulkLine NBulkLine) inverter
xinv_298 (OUT_298 whatevs_298 vdd vss PBulkLine NBulkLine) inverter
xinv_299 (OUT_299 whatevs_299 vdd vss PBulkLine NBulkLine) inverter
xinv_300 (OUT_300 whatevs_300 vdd vss PBulkLine NBulkLine) inverter
xinv_301 (OUT_301 whatevs_301 vdd vss PBulkLine NBulkLine) inverter
xinv_302 (OUT_302 whatevs_302 vdd vss PBulkLine NBulkLine) inverter
xinv_303 (OUT_303 whatevs_303 vdd vss PBulkLine NBulkLine) inverter
xinv_304 (OUT_304 whatevs_304 vdd vss PBulkLine NBulkLine) inverter
xinv_305 (OUT_305 whatevs_305 vdd vss PBulkLine NBulkLine) inverter
xinv_306 (OUT_306 whatevs_306 vdd vss PBulkLine NBulkLine) inverter
xinv_307 (OUT_307 whatevs_307 vdd vss PBulkLine NBulkLine) inverter
xinv_308 (OUT_308 whatevs_308 vdd vss PBulkLine NBulkLine) inverter
xinv_309 (OUT_309 whatevs_309 vdd vss PBulkLine NBulkLine) inverter
xinv_310 (OUT_310 whatevs_310 vdd vss PBulkLine NBulkLine) inverter
xinv_311 (OUT_311 whatevs_311 vdd vss PBulkLine NBulkLine) inverter
xinv_312 (OUT_312 whatevs_312 vdd vss PBulkLine NBulkLine) inverter
xinv_313 (OUT_313 whatevs_313 vdd vss PBulkLine NBulkLine) inverter
xinv_314 (OUT_314 whatevs_314 vdd vss PBulkLine NBulkLine) inverter
xinv_315 (OUT_315 whatevs_315 vdd vss PBulkLine NBulkLine) inverter
xinv_316 (OUT_316 whatevs_316 vdd vss PBulkLine NBulkLine) inverter
xinv_317 (OUT_317 whatevs_317 vdd vss PBulkLine NBulkLine) inverter
xinv_318 (OUT_318 whatevs_318 vdd vss PBulkLine NBulkLine) inverter