simulator lang=spectre

subckt decoderone (IN_0 enable OUT_0 OUT_1 vdd vss NBulkLine PBulkLine)
parameters multstage_1 = 1 multstage_2 = 1


xinv (enable enablebar vdd vss PBulkLine NBulkLine) inverter mult=multstage_2

xinv0 (IN_0 OUT_1pre vdd vss PBulkLine NBulkLine) inverter mult=multstage_2
xnor1 (OUT_1pre enablebar OUT_1 vdd vss PBulkLine NBulkLine) twonor mult=multstage_1
xnor2 (IN_0 enablebar OUT_0 vdd vss PBulkLine NBulkLine) twonor mult=multstage_1

ends decoder




subckt decodertwo (IN_0 IN_1 enable OUT_0 OUT_1 OUT_2 OUT_3 vdd vss NBulkLine PBulkLine)
parameters multstage_1 = 1 multstage_2 = 1


xinv (enable enablebar vdd vss PBulkLine NBulkLine) inverter mult=multstage_2

xdec (IN_0 IN_1 enablebar OUT_0 OUT_1 OUT_2 OUT_3 vdd vss PBulkLine NBulkLine) twotofourdecoder multinv=multstage_2 multnor=multstage_1

ends decoder






subckt decoderthree (IN_0 IN_1 IN_2 enable OUT_0 OUT_1 OUT_2 OUT_3 OUT_4 OUT_5 OUT_6 OUT_7 vdd vss NBulkLine PBulkLine)

xinv (enable enablebar vdd vss PBulkLine NBulkLine) inverter mult=2

xdec (IN_0 IN_1 IN_2 enablebar OUT_0 OUT_1 OUT_2 OUT_3 OUT_4 OUT_5 OUT_6 OUT_7 vdd vss PBulkLine NBulkLine) threetoeightdecoder 
ends decoder






subckt decoderfour (IN_0 IN_1 IN_2 IN_3 enable OUT_0 OUT_1 OUT_2 OUT_3 OUT_4 OUT_5 OUT_6 OUT_7 OUT_8 OUT_9 OUT_10 OUT_11 OUT_12 OUT_13 OUT_14 OUT_15 vdd vss NBulkLine PBulkLine)

xinv (enable enablebar vdd vss PBulkLine NBulkLine) inverter mult=2

xdec0 (IN_0 IN_1 enablebar temp_00 temp_01 temp_02 temp_03 vdd vss PBulkLine NBulkLine) twotofourdecoder 
xdec1 (IN_2 IN_3 enablebar temp_10 temp_11 temp_12 temp_13 vdd vss PBulkLine NBulkLine) twotofourdecoder 

xinv00 (temp_00 tempbar_00 vdd vss PBulkLine NBulkLine) inverter mult=1.2
xinv10 (temp_10 tempbar_10 vdd vss PBulkLine NBulkLine) inverter mult=1.2
xinv01 (temp_01 tempbar_01 vdd vss PBulkLine NBulkLine) inverter mult=1.2
xinv11 (temp_11 tempbar_11 vdd vss PBulkLine NBulkLine) inverter mult=1.2
xinv02 (temp_02 tempbar_02 vdd vss PBulkLine NBulkLine) inverter mult=1.2
xinv12 (temp_12 tempbar_12 vdd vss PBulkLine NBulkLine) inverter mult=1.2
xinv03 (temp_03 tempbar_03 vdd vss PBulkLine NBulkLine) inverter mult=1.2
xinv13 (temp_13 tempbar_13 vdd vss PBulkLine NBulkLine) inverter mult=1.2

xnor_0_0 (tempbar_00 tempbar_10 OUT_0 vdd vss PBulkLine NBulkLine) twonor 
xnor_1_0 (tempbar_01 tempbar_10 OUT_1 vdd vss PBulkLine NBulkLine) twonor 
xnor_2_0 (tempbar_02 tempbar_10 OUT_2 vdd vss PBulkLine NBulkLine) twonor 
xnor_3_0 (tempbar_03 tempbar_10 OUT_3 vdd vss PBulkLine NBulkLine) twonor 
xnor_0_1 (tempbar_00 tempbar_11 OUT_4 vdd vss PBulkLine NBulkLine) twonor 
xnor_1_1 (tempbar_01 tempbar_11 OUT_5 vdd vss PBulkLine NBulkLine) twonor 
xnor_2_1 (tempbar_02 tempbar_11 OUT_6 vdd vss PBulkLine NBulkLine) twonor 
xnor_3_1 (tempbar_03 tempbar_11 OUT_7 vdd vss PBulkLine NBulkLine) twonor 
xnor_0_2 (tempbar_00 tempbar_12 OUT_8 vdd vss PBulkLine NBulkLine) twonor 
xnor_1_2 (tempbar_01 tempbar_12 OUT_9 vdd vss PBulkLine NBulkLine) twonor 
xnor_2_2 (tempbar_02 tempbar_12 OUT_10 vdd vss PBulkLine NBulkLine) twonor 
xnor_3_2 (tempbar_03 tempbar_12 OUT_11 vdd vss PBulkLine NBulkLine) twonor 
xnor_0_3 (tempbar_00 tempbar_13 OUT_12 vdd vss PBulkLine NBulkLine) twonor 
xnor_1_3 (tempbar_01 tempbar_13 OUT_13 vdd vss PBulkLine NBulkLine) twonor 
xnor_2_3 (tempbar_02 tempbar_13 OUT_14 vdd vss PBulkLine NBulkLine) twonor 
xnor_3_3 (tempbar_03 tempbar_13 OUT_15 vdd vss PBulkLine NBulkLine) twonor 
ends decoderfour



subckt decoderfive (IN_0 IN_1 IN_2 IN_3 IN_4 enable OUT_0 OUT_1 OUT_2 OUT_3 OUT_4 OUT_5 OUT_6 OUT_7 OUT_8 OUT_9 OUT_10 OUT_11 OUT_12 OUT_13 OUT_14 OUT_15 OUT_16 OUT_17 OUT_18 OUT_19 OUT_20 OUT_21 OUT_22 OUT_23 OUT_24 OUT_25 OUT_26 OUT_27 OUT_28 OUT_29 OUT_30 OUT_31 vdd vss NBulkLine PBulkLine)

xinv (enable enablebar vdd vss PBulkLine NBulkLine) inverter mult=2

xdec0 (IN_0 IN_1 IN_2 enablebar temp_00 temp_01 temp_02 temp_03 temp_04 temp_05 temp_06 temp_07 vdd vss PBulkLine NBulkLine) threetoeightdecoder
xdec1 (IN_3 IN_4 enablebar temp_10 temp_11 temp_12 temp_13 vdd vss PBulkLine NBulkLine) twotofourdecoder 

xinv00 (temp_00 tempbar_00 vdd vss PBulkLine NBulkLine) inverter mult=1.2
xinv01 (temp_01 tempbar_01 vdd vss PBulkLine NBulkLine) inverter mult=1.2
xinv02 (temp_02 tempbar_02 vdd vss PBulkLine NBulkLine) inverter mult=1.2
xinv03 (temp_03 tempbar_03 vdd vss PBulkLine NBulkLine) inverter mult=1.2
xinv04 (temp_04 tempbar_04 vdd vss PBulkLine NBulkLine) inverter mult=1.2
xinv05 (temp_05 tempbar_05 vdd vss PBulkLine NBulkLine) inverter mult=1.2
xinv06 (temp_06 tempbar_06 vdd vss PBulkLine NBulkLine) inverter mult=1.2
xinv07 (temp_07 tempbar_07 vdd vss PBulkLine NBulkLine) inverter mult=1.2
xinv10 (temp_10 tempbar_10 vdd vss PBulkLine NBulkLine) inverter mult=1.5
xinv11 (temp_11 tempbar_11 vdd vss PBulkLine NBulkLine) inverter mult=1.5
xinv12 (temp_12 tempbar_12 vdd vss PBulkLine NBulkLine) inverter mult=1.5
xinv13 (temp_13 tempbar_13 vdd vss PBulkLine NBulkLine) inverter mult=1.5

xnor_0_0 (tempbar_00 tempbar_10 OUT_0 vdd vss PBulkLine NBulkLine) twonor 
xnor_1_0 (tempbar_01 tempbar_10 OUT_1 vdd vss PBulkLine NBulkLine) twonor 
xnor_2_0 (tempbar_02 tempbar_10 OUT_2 vdd vss PBulkLine NBulkLine) twonor 
xnor_3_0 (tempbar_03 tempbar_10 OUT_3 vdd vss PBulkLine NBulkLine) twonor 
xnor_4_0 (tempbar_04 tempbar_10 OUT_4 vdd vss PBulkLine NBulkLine) twonor 
xnor_5_0 (tempbar_05 tempbar_10 OUT_5 vdd vss PBulkLine NBulkLine) twonor 
xnor_6_0 (tempbar_06 tempbar_10 OUT_6 vdd vss PBulkLine NBulkLine) twonor 
xnor_7_0 (tempbar_07 tempbar_10 OUT_7 vdd vss PBulkLine NBulkLine) twonor 
xnor_0_1 (tempbar_00 tempbar_11 OUT_8 vdd vss PBulkLine NBulkLine) twonor 
xnor_1_1 (tempbar_01 tempbar_11 OUT_9 vdd vss PBulkLine NBulkLine) twonor 
xnor_2_1 (tempbar_02 tempbar_11 OUT_10 vdd vss PBulkLine NBulkLine) twonor 
xnor_3_1 (tempbar_03 tempbar_11 OUT_11 vdd vss PBulkLine NBulkLine) twonor 
xnor_4_1 (tempbar_04 tempbar_11 OUT_12 vdd vss PBulkLine NBulkLine) twonor 
xnor_5_1 (tempbar_05 tempbar_11 OUT_13 vdd vss PBulkLine NBulkLine) twonor 
xnor_6_1 (tempbar_06 tempbar_11 OUT_14 vdd vss PBulkLine NBulkLine) twonor 
xnor_7_1 (tempbar_07 tempbar_11 OUT_15 vdd vss PBulkLine NBulkLine) twonor 
xnor_0_2 (tempbar_00 tempbar_12 OUT_16 vdd vss PBulkLine NBulkLine) twonor 
xnor_1_2 (tempbar_01 tempbar_12 OUT_17 vdd vss PBulkLine NBulkLine) twonor 
xnor_2_2 (tempbar_02 tempbar_12 OUT_18 vdd vss PBulkLine NBulkLine) twonor 
xnor_3_2 (tempbar_03 tempbar_12 OUT_19 vdd vss PBulkLine NBulkLine) twonor 
xnor_4_2 (tempbar_04 tempbar_12 OUT_20 vdd vss PBulkLine NBulkLine) twonor 
xnor_5_2 (tempbar_05 tempbar_12 OUT_21 vdd vss PBulkLine NBulkLine) twonor 
xnor_6_2 (tempbar_06 tempbar_12 OUT_22 vdd vss PBulkLine NBulkLine) twonor 
xnor_7_2 (tempbar_07 tempbar_12 OUT_23 vdd vss PBulkLine NBulkLine) twonor 
xnor_0_3 (tempbar_00 tempbar_13 OUT_24 vdd vss PBulkLine NBulkLine) twonor 
xnor_1_3 (tempbar_01 tempbar_13 OUT_25 vdd vss PBulkLine NBulkLine) twonor 
xnor_2_3 (tempbar_02 tempbar_13 OUT_26 vdd vss PBulkLine NBulkLine) twonor 
xnor_3_3 (tempbar_03 tempbar_13 OUT_27 vdd vss PBulkLine NBulkLine) twonor 
xnor_4_3 (tempbar_04 tempbar_13 OUT_28 vdd vss PBulkLine NBulkLine) twonor 
xnor_5_3 (tempbar_05 tempbar_13 OUT_29 vdd vss PBulkLine NBulkLine) twonor 
xnor_6_3 (tempbar_06 tempbar_13 OUT_30 vdd vss PBulkLine NBulkLine) twonor 
xnor_7_3 (tempbar_07 tempbar_13 OUT_31 vdd vss PBulkLine NBulkLine) twonor 
ends decoderfive



subckt decodersix (IN_0 IN_1 IN_2 IN_3 IN_4 IN_5 enable OUT_0 OUT_1 OUT_2 OUT_3 OUT_4 OUT_5 OUT_6 OUT_7 OUT_8 OUT_9 OUT_10 OUT_11 OUT_12 OUT_13 OUT_14 OUT_15 OUT_16 OUT_17 OUT_18 OUT_19 OUT_20 OUT_21 OUT_22 OUT_23 OUT_24 OUT_25 OUT_26 OUT_27 OUT_28 OUT_29 OUT_30 OUT_31 OUT_32 OUT_33 OUT_34 OUT_35 OUT_36 OUT_37 OUT_38 OUT_39 OUT_40 OUT_41 OUT_42 OUT_43 OUT_44 OUT_45 OUT_46 OUT_47 OUT_48 OUT_49 OUT_50 OUT_51 OUT_52 OUT_53 OUT_54 OUT_55 OUT_56 OUT_57 OUT_58 OUT_59 OUT_60 OUT_61 OUT_62 OUT_63 vdd vss NBulkLine PBulkLine)

xinv (enable enablebar vdd vss PBulkLine NBulkLine) inverter mult=2

xdec0 (IN_0 IN_1 IN_2 enablebar temp_00 temp_01 temp_02 temp_03 temp_04 temp_05 temp_06 temp_07 vdd vss PBulkLine NBulkLine) threetoeightdecoder
xdec1 (IN_3 IN_4 IN_5 enablebar temp_10 temp_11 temp_12 temp_13 temp_14 temp_15 temp_16 temp_17 vdd vss PBulkLine NBulkLine) threetoeightdecoder

xinv00 (temp_00 tempbar_00 vdd vss PBulkLine NBulkLine) inverter  mult=1.5
xinv10 (temp_10 tempbar_10 vdd vss PBulkLine NBulkLine) inverter  mult=1.5
xinv01 (temp_01 tempbar_01 vdd vss PBulkLine NBulkLine) inverter  mult=1.5
xinv11 (temp_11 tempbar_11 vdd vss PBulkLine NBulkLine) inverter  mult=1.5
xinv02 (temp_02 tempbar_02 vdd vss PBulkLine NBulkLine) inverter  mult=1.5
xinv12 (temp_12 tempbar_12 vdd vss PBulkLine NBulkLine) inverter  mult=1.5
xinv03 (temp_03 tempbar_03 vdd vss PBulkLine NBulkLine) inverter  mult=1.5
xinv13 (temp_13 tempbar_13 vdd vss PBulkLine NBulkLine) inverter  mult=1.5
xinv04 (temp_04 tempbar_04 vdd vss PBulkLine NBulkLine) inverter  mult=1.5
xinv14 (temp_14 tempbar_14 vdd vss PBulkLine NBulkLine) inverter  mult=1.5
xinv05 (temp_05 tempbar_05 vdd vss PBulkLine NBulkLine) inverter  mult=1.5
xinv15 (temp_15 tempbar_15 vdd vss PBulkLine NBulkLine) inverter  mult=1.5
xinv06 (temp_06 tempbar_06 vdd vss PBulkLine NBulkLine) inverter  mult=1.5
xinv16 (temp_16 tempbar_16 vdd vss PBulkLine NBulkLine) inverter  mult=1.5
xinv07 (temp_07 tempbar_07 vdd vss PBulkLine NBulkLine) inverter  mult=1.5
xinv17 (temp_17 tempbar_17 vdd vss PBulkLine NBulkLine) inverter  mult=1.5


xnor_0_0 (tempbar_00 tempbar_10 OUT_0 vdd vss PBulkLine NBulkLine) twonor 
xnor_1_0 (tempbar_01 tempbar_10 OUT_1 vdd vss PBulkLine NBulkLine) twonor 
xnor_2_0 (tempbar_02 tempbar_10 OUT_2 vdd vss PBulkLine NBulkLine) twonor 
xnor_3_0 (tempbar_03 tempbar_10 OUT_3 vdd vss PBulkLine NBulkLine) twonor 
xnor_4_0 (tempbar_04 tempbar_10 OUT_4 vdd vss PBulkLine NBulkLine) twonor 
xnor_5_0 (tempbar_05 tempbar_10 OUT_5 vdd vss PBulkLine NBulkLine) twonor 
xnor_6_0 (tempbar_06 tempbar_10 OUT_6 vdd vss PBulkLine NBulkLine) twonor 
xnor_7_0 (tempbar_07 tempbar_10 OUT_7 vdd vss PBulkLine NBulkLine) twonor 
xnor_0_1 (tempbar_00 tempbar_11 OUT_8 vdd vss PBulkLine NBulkLine) twonor 
xnor_1_1 (tempbar_01 tempbar_11 OUT_9 vdd vss PBulkLine NBulkLine) twonor 
xnor_2_1 (tempbar_02 tempbar_11 OUT_10 vdd vss PBulkLine NBulkLine) twonor 
xnor_3_1 (tempbar_03 tempbar_11 OUT_11 vdd vss PBulkLine NBulkLine) twonor 
xnor_4_1 (tempbar_04 tempbar_11 OUT_12 vdd vss PBulkLine NBulkLine) twonor 
xnor_5_1 (tempbar_05 tempbar_11 OUT_13 vdd vss PBulkLine NBulkLine) twonor 
xnor_6_1 (tempbar_06 tempbar_11 OUT_14 vdd vss PBulkLine NBulkLine) twonor 
xnor_7_1 (tempbar_07 tempbar_11 OUT_15 vdd vss PBulkLine NBulkLine) twonor 
xnor_0_2 (tempbar_00 tempbar_12 OUT_16 vdd vss PBulkLine NBulkLine) twonor 
xnor_1_2 (tempbar_01 tempbar_12 OUT_17 vdd vss PBulkLine NBulkLine) twonor 
xnor_2_2 (tempbar_02 tempbar_12 OUT_18 vdd vss PBulkLine NBulkLine) twonor 
xnor_3_2 (tempbar_03 tempbar_12 OUT_19 vdd vss PBulkLine NBulkLine) twonor 
xnor_4_2 (tempbar_04 tempbar_12 OUT_20 vdd vss PBulkLine NBulkLine) twonor 
xnor_5_2 (tempbar_05 tempbar_12 OUT_21 vdd vss PBulkLine NBulkLine) twonor 
xnor_6_2 (tempbar_06 tempbar_12 OUT_22 vdd vss PBulkLine NBulkLine) twonor 
xnor_7_2 (tempbar_07 tempbar_12 OUT_23 vdd vss PBulkLine NBulkLine) twonor 
xnor_0_3 (tempbar_00 tempbar_13 OUT_24 vdd vss PBulkLine NBulkLine) twonor 
xnor_1_3 (tempbar_01 tempbar_13 OUT_25 vdd vss PBulkLine NBulkLine) twonor 
xnor_2_3 (tempbar_02 tempbar_13 OUT_26 vdd vss PBulkLine NBulkLine) twonor 
xnor_3_3 (tempbar_03 tempbar_13 OUT_27 vdd vss PBulkLine NBulkLine) twonor 
xnor_4_3 (tempbar_04 tempbar_13 OUT_28 vdd vss PBulkLine NBulkLine) twonor 
xnor_5_3 (tempbar_05 tempbar_13 OUT_29 vdd vss PBulkLine NBulkLine) twonor 
xnor_6_3 (tempbar_06 tempbar_13 OUT_30 vdd vss PBulkLine NBulkLine) twonor 
xnor_7_3 (tempbar_07 tempbar_13 OUT_31 vdd vss PBulkLine NBulkLine) twonor 
xnor_0_4 (tempbar_00 tempbar_14 OUT_32 vdd vss PBulkLine NBulkLine) twonor 
xnor_1_4 (tempbar_01 tempbar_14 OUT_33 vdd vss PBulkLine NBulkLine) twonor 
xnor_2_4 (tempbar_02 tempbar_14 OUT_34 vdd vss PBulkLine NBulkLine) twonor 
xnor_3_4 (tempbar_03 tempbar_14 OUT_35 vdd vss PBulkLine NBulkLine) twonor 
xnor_4_4 (tempbar_04 tempbar_14 OUT_36 vdd vss PBulkLine NBulkLine) twonor 
xnor_5_4 (tempbar_05 tempbar_14 OUT_37 vdd vss PBulkLine NBulkLine) twonor 
xnor_6_4 (tempbar_06 tempbar_14 OUT_38 vdd vss PBulkLine NBulkLine) twonor 
xnor_7_4 (tempbar_07 tempbar_14 OUT_39 vdd vss PBulkLine NBulkLine) twonor 
xnor_0_5 (tempbar_00 tempbar_15 OUT_40 vdd vss PBulkLine NBulkLine) twonor 
xnor_1_5 (tempbar_01 tempbar_15 OUT_41 vdd vss PBulkLine NBulkLine) twonor 
xnor_2_5 (tempbar_02 tempbar_15 OUT_42 vdd vss PBulkLine NBulkLine) twonor 
xnor_3_5 (tempbar_03 tempbar_15 OUT_43 vdd vss PBulkLine NBulkLine) twonor 
xnor_4_5 (tempbar_04 tempbar_15 OUT_44 vdd vss PBulkLine NBulkLine) twonor 
xnor_5_5 (tempbar_05 tempbar_15 OUT_45 vdd vss PBulkLine NBulkLine) twonor 
xnor_6_5 (tempbar_06 tempbar_15 OUT_46 vdd vss PBulkLine NBulkLine) twonor 
xnor_7_5 (tempbar_07 tempbar_15 OUT_47 vdd vss PBulkLine NBulkLine) twonor 
xnor_0_6 (tempbar_00 tempbar_16 OUT_48 vdd vss PBulkLine NBulkLine) twonor 
xnor_1_6 (tempbar_01 tempbar_16 OUT_49 vdd vss PBulkLine NBulkLine) twonor 
xnor_2_6 (tempbar_02 tempbar_16 OUT_50 vdd vss PBulkLine NBulkLine) twonor 
xnor_3_6 (tempbar_03 tempbar_16 OUT_51 vdd vss PBulkLine NBulkLine) twonor 
xnor_4_6 (tempbar_04 tempbar_16 OUT_52 vdd vss PBulkLine NBulkLine) twonor 
xnor_5_6 (tempbar_05 tempbar_16 OUT_53 vdd vss PBulkLine NBulkLine) twonor 
xnor_6_6 (tempbar_06 tempbar_16 OUT_54 vdd vss PBulkLine NBulkLine) twonor 
xnor_7_6 (tempbar_07 tempbar_16 OUT_55 vdd vss PBulkLine NBulkLine) twonor 
xnor_0_7 (tempbar_00 tempbar_17 OUT_56 vdd vss PBulkLine NBulkLine) twonor 
xnor_1_7 (tempbar_01 tempbar_17 OUT_57 vdd vss PBulkLine NBulkLine) twonor 
xnor_2_7 (tempbar_02 tempbar_17 OUT_58 vdd vss PBulkLine NBulkLine) twonor 
xnor_3_7 (tempbar_03 tempbar_17 OUT_59 vdd vss PBulkLine NBulkLine) twonor 
xnor_4_7 (tempbar_04 tempbar_17 OUT_60 vdd vss PBulkLine NBulkLine) twonor 
xnor_5_7 (tempbar_05 tempbar_17 OUT_61 vdd vss PBulkLine NBulkLine) twonor 
xnor_6_7 (tempbar_06 tempbar_17 OUT_62 vdd vss PBulkLine NBulkLine) twonor 
xnor_7_7 (tempbar_07 tempbar_17 OUT_63 vdd vss PBulkLine NBulkLine) twonor 
ends decodersix



subckt decoderseven (IN_0 IN_1 IN_2 IN_3 IN_4 IN_5 IN_6 enable OUT_0 OUT_1 OUT_2 OUT_3 OUT_4 OUT_5 OUT_6 OUT_7 OUT_8 OUT_9 OUT_10 OUT_11 OUT_12 OUT_13 OUT_14 OUT_15 OUT_16 OUT_17 OUT_18 OUT_19 OUT_20 OUT_21 OUT_22 OUT_23 OUT_24 OUT_25 OUT_26 OUT_27 OUT_28 OUT_29 OUT_30 OUT_31 OUT_32 OUT_33 OUT_34 OUT_35 OUT_36 OUT_37 OUT_38 OUT_39 OUT_40 OUT_41 OUT_42 OUT_43 OUT_44 OUT_45 OUT_46 OUT_47 OUT_48 OUT_49 OUT_50 OUT_51 OUT_52 OUT_53 OUT_54 OUT_55 OUT_56 OUT_57 OUT_58 OUT_59 OUT_60 OUT_61 OUT_62 OUT_63 OUT_64 OUT_65 OUT_66 OUT_67 OUT_68 OUT_69 OUT_70 OUT_71 OUT_72 OUT_73 OUT_74 OUT_75 OUT_76 OUT_77 OUT_78 OUT_79 OUT_80 OUT_81 OUT_82 OUT_83 OUT_84 OUT_85 OUT_86 OUT_87 OUT_88 OUT_89 OUT_90 OUT_91 OUT_92 OUT_93 OUT_94 OUT_95 OUT_96 OUT_97 OUT_98 OUT_99 OUT_100 OUT_101 OUT_102 OUT_103 OUT_104 OUT_105 OUT_106 OUT_107 OUT_108 OUT_109 OUT_110 OUT_111 OUT_112 OUT_113 OUT_114 OUT_115 OUT_116 OUT_117 OUT_118 OUT_119 OUT_120 OUT_121 OUT_122 OUT_123 OUT_124 OUT_125 OUT_126 OUT_127 vdd vss NBulkLine PBulkLine)

xinv (enable enablebar vdd vss PBulkLine NBulkLine) inverter mult=2

xdec0 (IN_0 IN_1 IN_2 enablebar temp_00 temp_01 temp_02 temp_03 temp_04 temp_05 temp_06 temp_07 vdd vss PBulkLine NBulkLine) threetoeightdecoder
xdec1 (IN_3 IN_4 enablebar temp_10 temp_11 temp_12 temp_13 vdd vss PBulkLine NBulkLine) twotofourdecoder 
xdec2 (IN_5 IN_6 enablebar temp_20 temp_21 temp_22 temp_23 vdd vss PBulkLine NBulkLine) twotofourdecoder 

xinv00 (temp_00 tempbar_00 vdd vss PBulkLine NBulkLine) inverter mult=2
xinvbar00 (tempbar_00 tempbarbar_00 vdd vss PBulkLine NBulkLine) inverter mult=4
xinvbarbar00 (tempbarbar_00 tempbarbarbar_00 vdd vss PBulkLine NBulkLine) inverter mult=16
xinv01 (temp_01 tempbar_01 vdd vss PBulkLine NBulkLine) inverter mult=2
xinvbar01 (tempbar_01 tempbarbar_01 vdd vss PBulkLine NBulkLine) inverter mult=4
xinvbarbar01 (tempbarbar_01 tempbarbarbar_01 vdd vss PBulkLine NBulkLine) inverter mult=16
xinv02 (temp_02 tempbar_02 vdd vss PBulkLine NBulkLine) inverter mult=2
xinvbar02 (tempbar_02 tempbarbar_02 vdd vss PBulkLine NBulkLine) inverter mult=4
xinvbarbar02 (tempbarbar_02 tempbarbarbar_02 vdd vss PBulkLine NBulkLine) inverter mult=16
xinv03 (temp_03 tempbar_03 vdd vss PBulkLine NBulkLine) inverter mult=2
xinvbar03 (tempbar_03 tempbarbar_03 vdd vss PBulkLine NBulkLine) inverter mult=4
xinvbarbar03 (tempbarbar_03 tempbarbarbar_03 vdd vss PBulkLine NBulkLine) inverter mult=16
xinv04 (temp_04 tempbar_04 vdd vss PBulkLine NBulkLine) inverter mult=2
xinvbar04 (tempbar_04 tempbarbar_04 vdd vss PBulkLine NBulkLine) inverter mult=4
xinvbarbar04 (tempbarbar_04 tempbarbarbar_04 vdd vss PBulkLine NBulkLine) inverter mult=16
xinv05 (temp_05 tempbar_05 vdd vss PBulkLine NBulkLine) inverter mult=2
xinvbar05 (tempbar_05 tempbarbar_05 vdd vss PBulkLine NBulkLine) inverter mult=4
xinvbarbar05 (tempbarbar_05 tempbarbarbar_05 vdd vss PBulkLine NBulkLine) inverter mult=16
xinv06 (temp_06 tempbar_06 vdd vss PBulkLine NBulkLine) inverter mult=2
xinvbar06 (tempbar_06 tempbarbar_06 vdd vss PBulkLine NBulkLine) inverter mult=4
xinvbarbar06 (tempbarbar_06 tempbarbarbar_06 vdd vss PBulkLine NBulkLine) inverter mult=16
xinv07 (temp_07 tempbar_07 vdd vss PBulkLine NBulkLine) inverter mult=2
xinvbar07 (tempbar_07 tempbarbar_07 vdd vss PBulkLine NBulkLine) inverter mult=4
xinvbarbar07 (tempbarbar_07 tempbarbarbar_07 vdd vss PBulkLine NBulkLine) inverter mult=16
xinv10 (temp_10 tempbar_10 vdd vss PBulkLine NBulkLine) inverter mult=2
xinv20 (temp_20 tempbar_20 vdd vss PBulkLine NBulkLine) inverter mult=2
xinvbar10 (tempbar_10 tempbarbar_10 vdd vss PBulkLine NBulkLine) inverter mult=4
xinvbarbar10 (tempbarbar_10 tempbarbarbar_10 vdd vss PBulkLine NBulkLine) inverter mult=16
xinvbar20 (tempbar_20 tempbarbar_20 vdd vss PBulkLine NBulkLine) inverter mult=4
xinvbarbar20 (tempbarbar_20 tempbarbarbar_20 vdd vss PBulkLine NBulkLine) inverter mult=16
xinv11 (temp_11 tempbar_11 vdd vss PBulkLine NBulkLine) inverter mult=2
xinv21 (temp_21 tempbar_21 vdd vss PBulkLine NBulkLine) inverter mult=2
xinvbar11 (tempbar_11 tempbarbar_11 vdd vss PBulkLine NBulkLine) inverter mult=4
xinvbarbar11 (tempbarbar_11 tempbarbarbar_11 vdd vss PBulkLine NBulkLine) inverter mult=16
xinvbar21 (tempbar_21 tempbarbar_21 vdd vss PBulkLine NBulkLine) inverter mult=4
xinvbarbar21 (tempbarbar_21 tempbarbarbar_21 vdd vss PBulkLine NBulkLine) inverter mult=16
xinv12 (temp_12 tempbar_12 vdd vss PBulkLine NBulkLine) inverter mult=2
xinv22 (temp_22 tempbar_22 vdd vss PBulkLine NBulkLine) inverter mult=2
xinvbar12 (tempbar_12 tempbarbar_12 vdd vss PBulkLine NBulkLine) inverter mult=4
xinvbarbar12 (tempbarbar_12 tempbarbarbar_12 vdd vss PBulkLine NBulkLine) inverter mult=16
xinvbar22 (tempbar_22 tempbarbar_22 vdd vss PBulkLine NBulkLine) inverter mult=4
xinvbarbar22 (tempbarbar_22 tempbarbarbar_22 vdd vss PBulkLine NBulkLine) inverter mult=16
xinv13 (temp_13 tempbar_13 vdd vss PBulkLine NBulkLine) inverter mult=2
xinv23 (temp_23 tempbar_23 vdd vss PBulkLine NBulkLine) inverter mult=2
xinvbar13 (tempbar_13 tempbarbar_13 vdd vss PBulkLine NBulkLine) inverter mult=4
xinvbarbar13 (tempbarbar_13 tempbarbarbar_13 vdd vss PBulkLine NBulkLine) inverter mult=16
xinvbar23 (tempbar_23 tempbarbar_23 vdd vss PBulkLine NBulkLine) inverter mult=4
xinvbarbar23 (tempbarbar_23 tempbarbarbar_23 vdd vss PBulkLine NBulkLine) inverter mult=16

xnor_0_0_0 (tempbarbarbar_00 tempbarbarbar_10 tempbarbarbar_20 OUT_0 vdd vss PBulkLine NBulkLine) threenor
xnor_1_0_0 (tempbarbarbar_01 tempbarbarbar_10 tempbarbarbar_20 OUT_1 vdd vss PBulkLine NBulkLine) threenor
xnor_2_0_0 (tempbarbarbar_02 tempbarbarbar_10 tempbarbarbar_20 OUT_2 vdd vss PBulkLine NBulkLine) threenor
xnor_3_0_0 (tempbarbarbar_03 tempbarbarbar_10 tempbarbarbar_20 OUT_3 vdd vss PBulkLine NBulkLine) threenor
xnor_4_0_0 (tempbarbarbar_04 tempbarbarbar_10 tempbarbarbar_20 OUT_4 vdd vss PBulkLine NBulkLine) threenor
xnor_5_0_0 (tempbarbarbar_05 tempbarbarbar_10 tempbarbarbar_20 OUT_5 vdd vss PBulkLine NBulkLine) threenor
xnor_6_0_0 (tempbarbarbar_06 tempbarbarbar_10 tempbarbarbar_20 OUT_6 vdd vss PBulkLine NBulkLine) threenor
xnor_7_0_0 (tempbarbarbar_07 tempbarbarbar_10 tempbarbarbar_20 OUT_7 vdd vss PBulkLine NBulkLine) threenor
xnor_0_1_0 (tempbarbarbar_00 tempbarbarbar_11 tempbarbarbar_20 OUT_8 vdd vss PBulkLine NBulkLine) threenor
xnor_1_1_0 (tempbarbarbar_01 tempbarbarbar_11 tempbarbarbar_20 OUT_9 vdd vss PBulkLine NBulkLine) threenor
xnor_2_1_0 (tempbarbarbar_02 tempbarbarbar_11 tempbarbarbar_20 OUT_10 vdd vss PBulkLine NBulkLine) threenor
xnor_3_1_0 (tempbarbarbar_03 tempbarbarbar_11 tempbarbarbar_20 OUT_11 vdd vss PBulkLine NBulkLine) threenor
xnor_4_1_0 (tempbarbarbar_04 tempbarbarbar_11 tempbarbarbar_20 OUT_12 vdd vss PBulkLine NBulkLine) threenor
xnor_5_1_0 (tempbarbarbar_05 tempbarbarbar_11 tempbarbarbar_20 OUT_13 vdd vss PBulkLine NBulkLine) threenor
xnor_6_1_0 (tempbarbarbar_06 tempbarbarbar_11 tempbarbarbar_20 OUT_14 vdd vss PBulkLine NBulkLine) threenor
xnor_7_1_0 (tempbarbarbar_07 tempbarbarbar_11 tempbarbarbar_20 OUT_15 vdd vss PBulkLine NBulkLine) threenor
xnor_0_2_0 (tempbarbarbar_00 tempbarbarbar_12 tempbarbarbar_20 OUT_16 vdd vss PBulkLine NBulkLine) threenor
xnor_1_2_0 (tempbarbarbar_01 tempbarbarbar_12 tempbarbarbar_20 OUT_17 vdd vss PBulkLine NBulkLine) threenor
xnor_2_2_0 (tempbarbarbar_02 tempbarbarbar_12 tempbarbarbar_20 OUT_18 vdd vss PBulkLine NBulkLine) threenor
xnor_3_2_0 (tempbarbarbar_03 tempbarbarbar_12 tempbarbarbar_20 OUT_19 vdd vss PBulkLine NBulkLine) threenor
xnor_4_2_0 (tempbarbarbar_04 tempbarbarbar_12 tempbarbarbar_20 OUT_20 vdd vss PBulkLine NBulkLine) threenor
xnor_5_2_0 (tempbarbarbar_05 tempbarbarbar_12 tempbarbarbar_20 OUT_21 vdd vss PBulkLine NBulkLine) threenor
xnor_6_2_0 (tempbarbarbar_06 tempbarbarbar_12 tempbarbarbar_20 OUT_22 vdd vss PBulkLine NBulkLine) threenor
xnor_7_2_0 (tempbarbarbar_07 tempbarbarbar_12 tempbarbarbar_20 OUT_23 vdd vss PBulkLine NBulkLine) threenor
xnor_0_3_0 (tempbarbarbar_00 tempbarbarbar_13 tempbarbarbar_20 OUT_24 vdd vss PBulkLine NBulkLine) threenor
xnor_1_3_0 (tempbarbarbar_01 tempbarbarbar_13 tempbarbarbar_20 OUT_25 vdd vss PBulkLine NBulkLine) threenor
xnor_2_3_0 (tempbarbarbar_02 tempbarbarbar_13 tempbarbarbar_20 OUT_26 vdd vss PBulkLine NBulkLine) threenor
xnor_3_3_0 (tempbarbarbar_03 tempbarbarbar_13 tempbarbarbar_20 OUT_27 vdd vss PBulkLine NBulkLine) threenor
xnor_4_3_0 (tempbarbarbar_04 tempbarbarbar_13 tempbarbarbar_20 OUT_28 vdd vss PBulkLine NBulkLine) threenor
xnor_5_3_0 (tempbarbarbar_05 tempbarbarbar_13 tempbarbarbar_20 OUT_29 vdd vss PBulkLine NBulkLine) threenor
xnor_6_3_0 (tempbarbarbar_06 tempbarbarbar_13 tempbarbarbar_20 OUT_30 vdd vss PBulkLine NBulkLine) threenor
xnor_7_3_0 (tempbarbarbar_07 tempbarbarbar_13 tempbarbarbar_20 OUT_31 vdd vss PBulkLine NBulkLine) threenor
xnor_0_0_1 (tempbarbarbar_00 tempbarbarbar_10 tempbarbarbar_21 OUT_32 vdd vss PBulkLine NBulkLine) threenor
xnor_1_0_1 (tempbarbarbar_01 tempbarbarbar_10 tempbarbarbar_21 OUT_33 vdd vss PBulkLine NBulkLine) threenor
xnor_2_0_1 (tempbarbarbar_02 tempbarbarbar_10 tempbarbarbar_21 OUT_34 vdd vss PBulkLine NBulkLine) threenor
xnor_3_0_1 (tempbarbarbar_03 tempbarbarbar_10 tempbarbarbar_21 OUT_35 vdd vss PBulkLine NBulkLine) threenor
xnor_4_0_1 (tempbarbarbar_04 tempbarbarbar_10 tempbarbarbar_21 OUT_36 vdd vss PBulkLine NBulkLine) threenor
xnor_5_0_1 (tempbarbarbar_05 tempbarbarbar_10 tempbarbarbar_21 OUT_37 vdd vss PBulkLine NBulkLine) threenor
xnor_6_0_1 (tempbarbarbar_06 tempbarbarbar_10 tempbarbarbar_21 OUT_38 vdd vss PBulkLine NBulkLine) threenor
xnor_7_0_1 (tempbarbarbar_07 tempbarbarbar_10 tempbarbarbar_21 OUT_39 vdd vss PBulkLine NBulkLine) threenor
xnor_0_1_1 (tempbarbarbar_00 tempbarbarbar_11 tempbarbarbar_21 OUT_40 vdd vss PBulkLine NBulkLine) threenor
xnor_1_1_1 (tempbarbarbar_01 tempbarbarbar_11 tempbarbarbar_21 OUT_41 vdd vss PBulkLine NBulkLine) threenor
xnor_2_1_1 (tempbarbarbar_02 tempbarbarbar_11 tempbarbarbar_21 OUT_42 vdd vss PBulkLine NBulkLine) threenor
xnor_3_1_1 (tempbarbarbar_03 tempbarbarbar_11 tempbarbarbar_21 OUT_43 vdd vss PBulkLine NBulkLine) threenor
xnor_4_1_1 (tempbarbarbar_04 tempbarbarbar_11 tempbarbarbar_21 OUT_44 vdd vss PBulkLine NBulkLine) threenor
xnor_5_1_1 (tempbarbarbar_05 tempbarbarbar_11 tempbarbarbar_21 OUT_45 vdd vss PBulkLine NBulkLine) threenor
xnor_6_1_1 (tempbarbarbar_06 tempbarbarbar_11 tempbarbarbar_21 OUT_46 vdd vss PBulkLine NBulkLine) threenor
xnor_7_1_1 (tempbarbarbar_07 tempbarbarbar_11 tempbarbarbar_21 OUT_47 vdd vss PBulkLine NBulkLine) threenor
xnor_0_2_1 (tempbarbarbar_00 tempbarbarbar_12 tempbarbarbar_21 OUT_48 vdd vss PBulkLine NBulkLine) threenor
xnor_1_2_1 (tempbarbarbar_01 tempbarbarbar_12 tempbarbarbar_21 OUT_49 vdd vss PBulkLine NBulkLine) threenor
xnor_2_2_1 (tempbarbarbar_02 tempbarbarbar_12 tempbarbarbar_21 OUT_50 vdd vss PBulkLine NBulkLine) threenor
xnor_3_2_1 (tempbarbarbar_03 tempbarbarbar_12 tempbarbarbar_21 OUT_51 vdd vss PBulkLine NBulkLine) threenor
xnor_4_2_1 (tempbarbarbar_04 tempbarbarbar_12 tempbarbarbar_21 OUT_52 vdd vss PBulkLine NBulkLine) threenor
xnor_5_2_1 (tempbarbarbar_05 tempbarbarbar_12 tempbarbarbar_21 OUT_53 vdd vss PBulkLine NBulkLine) threenor
xnor_6_2_1 (tempbarbarbar_06 tempbarbarbar_12 tempbarbarbar_21 OUT_54 vdd vss PBulkLine NBulkLine) threenor
xnor_7_2_1 (tempbarbarbar_07 tempbarbarbar_12 tempbarbarbar_21 OUT_55 vdd vss PBulkLine NBulkLine) threenor
xnor_0_3_1 (tempbarbarbar_00 tempbarbarbar_13 tempbarbarbar_21 OUT_56 vdd vss PBulkLine NBulkLine) threenor
xnor_1_3_1 (tempbarbarbar_01 tempbarbarbar_13 tempbarbarbar_21 OUT_57 vdd vss PBulkLine NBulkLine) threenor
xnor_2_3_1 (tempbarbarbar_02 tempbarbarbar_13 tempbarbarbar_21 OUT_58 vdd vss PBulkLine NBulkLine) threenor
xnor_3_3_1 (tempbarbarbar_03 tempbarbarbar_13 tempbarbarbar_21 OUT_59 vdd vss PBulkLine NBulkLine) threenor
xnor_4_3_1 (tempbarbarbar_04 tempbarbarbar_13 tempbarbarbar_21 OUT_60 vdd vss PBulkLine NBulkLine) threenor
xnor_5_3_1 (tempbarbarbar_05 tempbarbarbar_13 tempbarbarbar_21 OUT_61 vdd vss PBulkLine NBulkLine) threenor
xnor_6_3_1 (tempbarbarbar_06 tempbarbarbar_13 tempbarbarbar_21 OUT_62 vdd vss PBulkLine NBulkLine) threenor
xnor_7_3_1 (tempbarbarbar_07 tempbarbarbar_13 tempbarbarbar_21 OUT_63 vdd vss PBulkLine NBulkLine) threenor
xnor_0_0_2 (tempbarbarbar_00 tempbarbarbar_10 tempbarbarbar_22 OUT_64 vdd vss PBulkLine NBulkLine) threenor
xnor_1_0_2 (tempbarbarbar_01 tempbarbarbar_10 tempbarbarbar_22 OUT_65 vdd vss PBulkLine NBulkLine) threenor
xnor_2_0_2 (tempbarbarbar_02 tempbarbarbar_10 tempbarbarbar_22 OUT_66 vdd vss PBulkLine NBulkLine) threenor
xnor_3_0_2 (tempbarbarbar_03 tempbarbarbar_10 tempbarbarbar_22 OUT_67 vdd vss PBulkLine NBulkLine) threenor
xnor_4_0_2 (tempbarbarbar_04 tempbarbarbar_10 tempbarbarbar_22 OUT_68 vdd vss PBulkLine NBulkLine) threenor
xnor_5_0_2 (tempbarbarbar_05 tempbarbarbar_10 tempbarbarbar_22 OUT_69 vdd vss PBulkLine NBulkLine) threenor
xnor_6_0_2 (tempbarbarbar_06 tempbarbarbar_10 tempbarbarbar_22 OUT_70 vdd vss PBulkLine NBulkLine) threenor
xnor_7_0_2 (tempbarbarbar_07 tempbarbarbar_10 tempbarbarbar_22 OUT_71 vdd vss PBulkLine NBulkLine) threenor
xnor_0_1_2 (tempbarbarbar_00 tempbarbarbar_11 tempbarbarbar_22 OUT_72 vdd vss PBulkLine NBulkLine) threenor
xnor_1_1_2 (tempbarbarbar_01 tempbarbarbar_11 tempbarbarbar_22 OUT_73 vdd vss PBulkLine NBulkLine) threenor
xnor_2_1_2 (tempbarbarbar_02 tempbarbarbar_11 tempbarbarbar_22 OUT_74 vdd vss PBulkLine NBulkLine) threenor
xnor_3_1_2 (tempbarbarbar_03 tempbarbarbar_11 tempbarbarbar_22 OUT_75 vdd vss PBulkLine NBulkLine) threenor
xnor_4_1_2 (tempbarbarbar_04 tempbarbarbar_11 tempbarbarbar_22 OUT_76 vdd vss PBulkLine NBulkLine) threenor
xnor_5_1_2 (tempbarbarbar_05 tempbarbarbar_11 tempbarbarbar_22 OUT_77 vdd vss PBulkLine NBulkLine) threenor
xnor_6_1_2 (tempbarbarbar_06 tempbarbarbar_11 tempbarbarbar_22 OUT_78 vdd vss PBulkLine NBulkLine) threenor
xnor_7_1_2 (tempbarbarbar_07 tempbarbarbar_11 tempbarbarbar_22 OUT_79 vdd vss PBulkLine NBulkLine) threenor
xnor_0_2_2 (tempbarbarbar_00 tempbarbarbar_12 tempbarbarbar_22 OUT_80 vdd vss PBulkLine NBulkLine) threenor
xnor_1_2_2 (tempbarbarbar_01 tempbarbarbar_12 tempbarbarbar_22 OUT_81 vdd vss PBulkLine NBulkLine) threenor
xnor_2_2_2 (tempbarbarbar_02 tempbarbarbar_12 tempbarbarbar_22 OUT_82 vdd vss PBulkLine NBulkLine) threenor
xnor_3_2_2 (tempbarbarbar_03 tempbarbarbar_12 tempbarbarbar_22 OUT_83 vdd vss PBulkLine NBulkLine) threenor
xnor_4_2_2 (tempbarbarbar_04 tempbarbarbar_12 tempbarbarbar_22 OUT_84 vdd vss PBulkLine NBulkLine) threenor
xnor_5_2_2 (tempbarbarbar_05 tempbarbarbar_12 tempbarbarbar_22 OUT_85 vdd vss PBulkLine NBulkLine) threenor
xnor_6_2_2 (tempbarbarbar_06 tempbarbarbar_12 tempbarbarbar_22 OUT_86 vdd vss PBulkLine NBulkLine) threenor
xnor_7_2_2 (tempbarbarbar_07 tempbarbarbar_12 tempbarbarbar_22 OUT_87 vdd vss PBulkLine NBulkLine) threenor
xnor_0_3_2 (tempbarbarbar_00 tempbarbarbar_13 tempbarbarbar_22 OUT_88 vdd vss PBulkLine NBulkLine) threenor
xnor_1_3_2 (tempbarbarbar_01 tempbarbarbar_13 tempbarbarbar_22 OUT_89 vdd vss PBulkLine NBulkLine) threenor
xnor_2_3_2 (tempbarbarbar_02 tempbarbarbar_13 tempbarbarbar_22 OUT_90 vdd vss PBulkLine NBulkLine) threenor
xnor_3_3_2 (tempbarbarbar_03 tempbarbarbar_13 tempbarbarbar_22 OUT_91 vdd vss PBulkLine NBulkLine) threenor
xnor_4_3_2 (tempbarbarbar_04 tempbarbarbar_13 tempbarbarbar_22 OUT_92 vdd vss PBulkLine NBulkLine) threenor
xnor_5_3_2 (tempbarbarbar_05 tempbarbarbar_13 tempbarbarbar_22 OUT_93 vdd vss PBulkLine NBulkLine) threenor
xnor_6_3_2 (tempbarbarbar_06 tempbarbarbar_13 tempbarbarbar_22 OUT_94 vdd vss PBulkLine NBulkLine) threenor