simulator lang=spectre

include "CMOSlogic.scs"
subckt decoderone (IN_0 enable OUT_0 OUT_1 vdd vss NBulkLine PBulkLine)

xinv (enable enablebar vdd vss PBulkLine NBulkLine) inverter

xinv0 (IN_0 OUT_1pre vdd vss PBulkLine NBulkLine) inverter
xnor1 (OUT_1pre enablebar OUT_1 vdd vss PBulkLine NBulkLine) twonor
xnor2 (IN_0 enablebar OUT_0 vdd vss PBulkLine NBulkLine) twonor


ends decoder
subckt decodertwo (IN_0 IN_1 enable OUT_0 OUT_1 OUT_2 OUT_3 vdd vss NBulkLine PBulkLine)

xinv (enable enablebar vdd vss PBulkLine NBulkLine) inverter

xdec (IN_0 IN_1 enablebar OUT_0 OUT_1 OUT_2 OUT_3 vdd vss PBulkLine NBulkLine) twotofourdecoder


ends decoder
subckt decoderthree (IN_0 IN_1 IN_2 enable OUT_0 OUT_1 OUT_2 OUT_3 OUT_4 OUT_5 OUT_6 OUT_7 vdd vss NBulkLine PBulkLine)

xinv (enable enablebar vdd vss PBulkLine NBulkLine) inverter

xdec (IN_0 IN_1 IN_2 enablebar OUT_0 OUT_1 OUT_2 OUT_3 OUT_4 OUT_5 OUT_6 OUT_7 vdd vss PBulkLine NBulkLine) threetoeightdecoder


ends decoder
subckt decoderfour (IN_0 IN_1 IN_2 IN_3 enable OUT_0 OUT_1 OUT_2 OUT_3 OUT_4 OUT_5 OUT_6 OUT_7 OUT_8 OUT_9 OUT_10 OUT_11 OUT_12 OUT_13 OUT_14 OUT_15 vdd vss NBulkLine PBulkLine)

xinv (enable enablebar vdd vss PBulkLine NBulkLine) inverter

xdec (IN_2 IN_3 enablebar temp_0 temp_1 temp_2 temp_3 vdd vss PBulkLine NBulkLine) twotofourdecoder
xinv0 (temp_0 tempbar_0 vdd vss PBulkLine NBulkLine) inverter
xdec0 (IN_0 IN_1 tempbar_0 OUT_0 OUT_1 OUT_2 OUT_3 vdd vss PBulkLine NBulkLine) twotofourdecoder
xinv1 (temp_1 tempbar_1 vdd vss PBulkLine NBulkLine) inverter
xdec1 (IN_0 IN_1 tempbar_1 OUT_4 OUT_5 OUT_6 OUT_7 vdd vss PBulkLine NBulkLine) twotofourdecoder
xinv2 (temp_2 tempbar_2 vdd vss PBulkLine NBulkLine) inverter
xdec2 (IN_0 IN_1 tempbar_2 OUT_8 OUT_9 OUT_10 OUT_11 vdd vss PBulkLine NBulkLine) twotofourdecoder
xinv3 (temp_3 tempbar_3 vdd vss PBulkLine NBulkLine) inverter
xdec3 (IN_0 IN_1 tempbar_3 OUT_12 OUT_13 OUT_14 OUT_15 vdd vss PBulkLine NBulkLine) twotofourdecoder


ends decoder
subckt decoderfive (IN_0 IN_1 IN_2 IN_3 IN_4 enable OUT_0 OUT_1 OUT_2 OUT_3 OUT_4 OUT_5 OUT_6 OUT_7 OUT_8 OUT_9 OUT_10 OUT_11 OUT_12 OUT_13 OUT_14 OUT_15 OUT_16 OUT_17 OUT_18 OUT_19 OUT_20 OUT_21 OUT_22 OUT_23 OUT_24 OUT_25 OUT_26 OUT_27 OUT_28 OUT_29 OUT_30 OUT_31 vdd vss NBulkLine PBulkLine)

xinv (enable enablebar vdd vss PBulkLine NBulkLine) inverter

xdec (IN_3 IN_4 enablebar temp_0 temp_1 temp_2 temp_3 vdd vss PBulkLine NBulkLine) twotofourdecoder
xinv0 (temp_0 tempbar_0 vdd vss PBulkLine NBulkLine) inverter
xdec0 (IN_0 IN_1 IN_2 tempbar_0 OUT_0 OUT_1 OUT_2 OUT_3 OUT_4 OUT_5 OUT_6 OUT_7 vdd vss PBulkLine NBulkLine) threetoeightdecoder
xinv1 (temp_1 tempbar_1 vdd vss PBulkLine NBulkLine) inverter
xdec1 (IN_0 IN_1 IN_2 tempbar_1 OUT_8 OUT_9 OUT_10 OUT_11 OUT_12 OUT_13 OUT_14 OUT_15 vdd vss PBulkLine NBulkLine) threetoeightdecoder
xinv2 (temp_2 tempbar_2 vdd vss PBulkLine NBulkLine) inverter
xdec2 (IN_0 IN_1 IN_2 tempbar_2 OUT_16 OUT_17 OUT_18 OUT_19 OUT_20 OUT_21 OUT_22 OUT_23 vdd vss PBulkLine NBulkLine) threetoeightdecoder
xinv3 (temp_3 tempbar_3 vdd vss PBulkLine NBulkLine) inverter
xdec3 (IN_0 IN_1 IN_2 tempbar_3 OUT_24 OUT_25 OUT_26 OUT_27 OUT_28 OUT_29 OUT_30 OUT_31 vdd vss PBulkLine NBulkLine) threetoeightdecoder


ends decoder
subckt decodersix (IN_0 IN_1 IN_2 IN_3 IN_4 IN_5 enable OUT_0 OUT_1 OUT_2 OUT_3 OUT_4 OUT_5 OUT_6 OUT_7 OUT_8 OUT_9 OUT_10 OUT_11 OUT_12 OUT_13 OUT_14 OUT_15 OUT_16 OUT_17 OUT_18 OUT_19 OUT_20 OUT_21 OUT_22 OUT_23 OUT_24 OUT_25 OUT_26 OUT_27 OUT_28 OUT_29 OUT_30 OUT_31 OUT_32 OUT_33 OUT_34 OUT_35 OUT_36 OUT_37 OUT_38 OUT_39 OUT_40 OUT_41 OUT_42 OUT_43 OUT_44 OUT_45 OUT_46 OUT_47 OUT_48 OUT_49 OUT_50 OUT_51 OUT_52 OUT_53 OUT_54 OUT_55 OUT_56 OUT_57 OUT_58 OUT_59 OUT_60 OUT_61 OUT_62 OUT_63 vdd vss NBulkLine PBulkLine)

xinv (enable enablebar vdd vss PBulkLine NBulkLine) inverter

xdec (IN_3 IN_4 IN_5 enablebar temp_0 temp_1 temp_2 temp_3 temp_4 temp_5 temp_6 temp_7 vdd vss PBulkLine NBulkLine) threetoeightdecoder
xinv0 (temp_0 tempbar_0 vdd vss PBulkLine NBulkLine) inverter
xdec0 (IN_0 IN_1 IN_2 tempbar_0 OUT_0 OUT_1 OUT_2 OUT_3 OUT_4 OUT_5 OUT_6 OUT_7 vdd vss PBulkLine NBulkLine) threetoeightdecoder
xinv1 (temp_1 tempbar_1 vdd vss PBulkLine NBulkLine) inverter
xdec1 (IN_0 IN_1 IN_2 tempbar_1 OUT_8 OUT_9 OUT_10 OUT_11 OUT_12 OUT_13 OUT_14 OUT_15 vdd vss PBulkLine NBulkLine) threetoeightdecoder
xinv2 (temp_2 tempbar_2 vdd vss PBulkLine NBulkLine) inverter
xdec2 (IN_0 IN_1 IN_2 tempbar_2 OUT_16 OUT_17 OUT_18 OUT_19 OUT_20 OUT_21 OUT_22 OUT_23 vdd vss PBulkLine NBulkLine) threetoeightdecoder
xinv3 (temp_3 tempbar_3 vdd vss PBulkLine NBulkLine) inverter
xdec3 (IN_0 IN_1 IN_2 tempbar_3 OUT_24 OUT_25 OUT_26 OUT_27 OUT_28 OUT_29 OUT_30 OUT_31 vdd vss PBulkLine NBulkLine) threetoeightdecoder
xinv4 (temp_4 tempbar_4 vdd vss PBulkLine NBulkLine) inverter
xdec4 (IN_0 IN_1 IN_2 tempbar_4 OUT_32 OUT_33 OUT_34 OUT_35 OUT_36 OUT_37 OUT_38 OUT_39 vdd vss PBulkLine NBulkLine) threetoeightdecoder
xinv5 (temp_5 tempbar_5 vdd vss PBulkLine NBulkLine) inverter
xdec5 (IN_0 IN_1 IN_2 tempbar_5 OUT_40 OUT_41 OUT_42 OUT_43 OUT_44 OUT_45 OUT_46 OUT_47 vdd vss PBulkLine NBulkLine) threetoeightdecoder
xinv6 (temp_6 tempbar_6 vdd vss PBulkLine NBulkLine) inverter
xdec6 (IN_0 IN_1 IN_2 tempbar_6 OUT_48 OUT_49 OUT_50 OUT_51 OUT_52 OUT_53 OUT_54 OUT_55 vdd vss PBulkLine NBulkLine) threetoeightdecoder
xinv7 (temp_7 tempbar_7 vdd vss PBulkLine NBulkLine) inverter
xdec7 (IN_0 IN_1 IN_2 tempbar_7 OUT_56 OUT_57 OUT_58 OUT_59 OUT_60 OUT_61 OUT_62 OUT_63 vdd vss PBulkLine NBulkLine) threetoeightdecoder


ends decoder
subckt decoderseven (IN_0 IN_1 IN_2 IN_3 IN_4 IN_5 IN_6 enable OUT_0 OUT_1 OUT_2 OUT_3 OUT_4 OUT_5 OUT_6 OUT_7 OUT_8 OUT_9 OUT_10 OUT_11 OUT_12 OUT_13 OUT_14 OUT_15 OUT_16 OUT_17 OUT_18 OUT_19 OUT_20 OUT_21 OUT_22 OUT_23 OUT_24 OUT_25 OUT_26 OUT_27 OUT_28 OUT_29 OUT_30 OUT_31 OUT_32 OUT_33 OUT_34 OUT_35 OUT_36 OUT_37 OUT_38 OUT_39 OUT_40 OUT_41 OUT_42 OUT_43 OUT_44 OUT_45 OUT_46 OUT_47 OUT_48 OUT_49 OUT_50 OUT_51 OUT_52 OUT_53 OUT_54 OUT_55 OUT_56 OUT_57 OUT_58 OUT_59 OUT_60 OUT_61 OUT_62 OUT_63 OUT_64 OUT_65 OUT_66 OUT_67 OUT_68 OUT_69 OUT_70 OUT_71 OUT_72 OUT_73 OUT_74 OUT_75 OUT_76 OUT_77 OUT_78 OUT_79 OUT_80 OUT_81 OUT_82 OUT_83 OUT_84 OUT_85 OUT_86 OUT_87 OUT_88 OUT_89 OUT_90 OUT_91 OUT_92 OUT_93 OUT_94 OUT_95 OUT_96 OUT_97 OUT_98 OUT_99 OUT_100 OUT_101 OUT_102 OUT_103 OUT_104 OUT_105 OUT_106 OUT_107 OUT_108 OUT_109 OUT_110 OUT_111 OUT_112 OUT_113 OUT_114 OUT_115 OUT_116 OUT_117 OUT_118 OUT_119 OUT_120 OUT_121 OUT_122 OUT_123 OUT_124 OUT_125 OUT_126 OUT_127 vdd vss NBulkLine PBulkLine)

xinv (enable enablebar vdd vss PBulkLine NBulkLine) inverter

xdec (IN_4 IN_5 IN_6 enablebar temp_0 temp_1 temp_2 temp_3 temp_4 temp_5 temp_6 temp_7 vdd vss PBulkLine NBulkLine) threetoeightdecoder
xinv0 (temp_0 tempbar_0 vdd vss PBulkLine NBulkLine) inverter
xdec1L0 (IN_2 IN_3 tempbar_0 temp_0_0 temp_1_0 temp_2_0 temp_3_0 vdd vss PBulkLine NBulkLine) twotofourdecoder
xinv_0_0 (temp_0_0 tempbar_0_0 vdd vss PBulkLine NBulkLine) inverter
xdec2L_0_0 (IN_0 IN_1 tempbar_0_0 OUT_0 OUT_1 OUT_2 OUT_3 vdd vss PBulkLine NBulkLine) twotofourdecoder
xinv_1_0 (temp_1_0 tempbar_1_0 vdd vss PBulkLine NBulkLine) inverter
xdec2L_1_0 (IN_0 IN_1 tempbar_1_0 OUT_4 OUT_5 OUT_6 OUT_7 vdd vss PBulkLine NBulkLine) twotofourdecoder
xinv_2_0 (temp_2_0 tempbar_2_0 vdd vss PBulkLine NBulkLine) inverter
xdec2L_2_0 (IN_0 IN_1 tempbar_2_0 OUT_8 OUT_9 OUT_10 OUT_11 vdd vss PBulkLine NBulkLine) twotofourdecoder
xinv_3_0 (temp_3_0 tempbar_3_0 vdd vss PBulkLine NBulkLine) inverter
xdec2L_3_0 (IN_0 IN_1 tempbar_3_0 OUT_12 OUT_13 OUT_14 OUT_15 vdd vss PBulkLine NBulkLine) twotofourdecoder
xinv1 (temp_1 tempbar_1 vdd vss PBulkLine NBulkLine) inverter
xdec1L1 (IN_2 IN_3 tempbar_1 temp_0_1 temp_1_1 temp_2_1 temp_3_1 vdd vss PBulkLine NBulkLine) twotofourdecoder
xinv_0_1 (temp_0_1 tempbar_0_1 vdd vss PBulkLine NBulkLine) inverter
xdec2L_0_1 (IN_0 IN_1 tempbar_0_1 OUT_16 OUT_17 OUT_18 OUT_19 vdd vss PBulkLine NBulkLine) twotofourdecoder
xinv_1_1 (temp_1_1 tempbar_1_1 vdd vss PBulkLine NBulkLine) inverter
xdec2L_1_1 (IN_0 IN_1 tempbar_1_1 OUT_20 OUT_21 OUT_22 OUT_23 vdd vss PBulkLine NBulkLine) twotofourdecoder
xinv_2_1 (temp_2_1 tempbar_2_1 vdd vss PBulkLine NBulkLine) inverter
xdec2L_2_1 (IN_0 IN_1 tempbar_2_1 OUT_24 OUT_25 OUT_26 OUT_27 vdd vss PBulkLine NBulkLine) twotofourdecoder
xinv_3_1 (temp_3_1 tempbar_3_1 vdd vss PBulkLine NBulkLine) inverter
xdec2L_3_1 (IN_0 IN_1 tempbar_3_1 OUT_28 OUT_29 OUT_30 OUT_31 vdd vss PBulkLine NBulkLine) twotofourdecoder
xinv2 (temp_2 tempbar_2 vdd vss PBulkLine NBulkLine) inverter
xdec1L2 (IN_2 IN_3 tempbar_2 temp_0_2 temp_1_2 temp_2_2 temp_3_2 vdd vss PBulkLine NBulkLine) twotofourdecoder
xinv_0_2 (temp_0_2 tempbar_0_2 vdd vss PBulkLine NBulkLine) inverter
xdec2L_0_2 (IN_0 IN_1 tempbar_0_2 OUT_32 OUT_33 OUT_34 OUT_35 vdd vss PBulkLine NBulkLine) twotofourdecoder
xinv_1_2 (temp_1_2 tempbar_1_2 vdd vss PBulkLine NBulkLine) inverter
xdec2L_1_2 (IN_0 IN_1 tempbar_1_2 OUT_36 OUT_37 OUT_38 OUT_39 vdd vss PBulkLine NBulkLine) twotofourdecoder
xinv_2_2 (temp_2_2 tempbar_2_2 vdd vss PBulkLine NBulkLine) inverter
xdec2L_2_2 (IN_0 IN_1 tempbar_2_2 OUT_40 OUT_41 OUT_42 OUT_43 vdd vss PBulkLine NBulkLine) twotofourdecoder
xinv_3_2 (temp_3_2 tempbar_3_2 vdd vss PBulkLine NBulkLine) inverter
xdec2L_3_2 (IN_0 IN_1 tempbar_3_2 OUT_44 OUT_45 OUT_46 OUT_47 vdd vss PBulkLine NBulkLine) twotofourdecoder
xinv3 (temp_3 tempbar_3 vdd vss PBulkLine NBulkLine) inverter
xdec1L3 (IN_2 IN_3 tempbar_3 temp_0_3 temp_1_3 temp_2_3 temp_3_3 vdd vss PBulkLine NBulkLine) twotofourdecoder
xinv_0_3 (temp_0_3 tempbar_0_3 vdd vss PBulkLine NBulkLine) inverter
xdec2L_0_3 (IN_0 IN_1 tempbar_0_3 OUT_48 OUT_49 OUT_50 OUT_51 vdd vss PBulkLine NBulkLine) twotofourdecoder
xinv_1_3 (temp_1_3 tempbar_1_3 vdd vss PBulkLine NBulkLine) inverter
xdec2L_1_3 (IN_0 IN_1 tempbar_1_3 OUT_52 OUT_53 OUT_54 OUT_55 vdd vss PBulkLine NBulkLine) twotofourdecoder
xinv_2_3 (temp_2_3 tempbar_2_3 vdd vss PBulkLine NBulkLine) inverter
xdec2L_2_3 (IN_0 IN_1 tempbar_2_3 OUT_56 OUT_57 OUT_58 OUT_59 vdd vss PBulkLine NBulkLine) twotofourdecoder
xinv_3_3 (temp_3_3 tempbar_3_3 vdd vss PBulkLine NBulkLine) inverter
xdec2L_3_3 (IN_0 IN_1 tempbar_3_3 OUT_60 OUT_61 OUT_62 OUT_63 vdd vss PBulkLine NBulkLine) twotofourdecoder
xinv4 (temp_4 tempbar_4 vdd vss PBulkLine NBulkLine) inverter
xdec1L4 (IN_2 IN_3 tempbar_4 temp_0_4 temp_1_4 temp_2_4 temp_3_4 vdd vss PBulkLine NBulkLine) twotofourdecoder
xinv_0_4 (temp_0_4 tempbar_0_4 vdd vss PBulkLine NBulkLine) inverter
xdec2L_0_4 (IN_0 IN_1 tempbar_0_4 OUT_64 OUT_65 OUT_66 OUT_67 vdd vss PBulkLine NBulkLine) twotofourdecoder
xinv_1_4 (temp_1_4 tempbar_1_4 vdd vss PBulkLine NBulkLine) inverter
xdec2L_1_4 (IN_0 IN_1 tempbar_1_4 OUT_68 OUT_69 OUT_70 OUT_71 vdd vss PBulkLine NBulkLine) twotofourdecoder
xinv_2_4 (temp_2_4 tempbar_2_4 vdd vss PBulkLine NBulkLine) inverter
xdec2L_2_4 (IN_0 IN_1 tempbar_2_4 OUT_72 OUT_73 OUT_74 OUT_75 vdd vss PBulkLine NBulkLine) twotofourdecoder
xinv_3_4 (temp_3_4 tempbar_3_4 vdd vss PBulkLine NBulkLine) inverter
xdec2L_3_4 (IN_0 IN_1 tempbar_3_4 OUT_76 OUT_77 OUT_78 OUT_79 vdd vss PBulkLine NBulkLine) twotofourdecoder
xinv5 (temp_5 tempbar_5 vdd vss PBulkLine NBulkLine) inverter
xdec1L5 (IN_2 IN_3 tempbar_5 temp_0_5 temp_1_5 temp_2_5 temp_3_5 vdd vss PBulkLine NBulkLine) twotofourdecoder
xinv_0_5 (temp_0_5 tempbar_0_5 vdd vss PBulkLine NBulkLine) inverter
xdec2L_0_5 (IN_0 IN_1 tempbar_0_5 OUT_80 OUT_81 OUT_82 OUT_83 vdd vss PBulkLine NBulkLine) twotofourdecoder
xinv_1_5 (temp_1_5 tempbar_1_5 vdd vss PBulkLine NBulkLine) inverter
xdec2L_1_5 (IN_0 IN_1 tempbar_1_5 OUT_84 OUT_85 OUT_86 OUT_87 vdd vss PBulkLine NBulkLine) twotofourdecoder
xinv_2_5 (temp_2_5 tempbar_2_5 vdd vss PBulkLine NBulkLine) inverter
xdec2L_2_5 (IN_0 IN_1 tempbar_2_5 OUT_88 OUT_89 OUT_90 OUT_91 vdd vss PBulkLine NBulkLine) twotofourdecoder
xinv_3_5 (temp_3_5 tempbar_3_5 vdd vss PBulkLine NBulkLine) inverter
xdec2L_3_5 (IN_0 IN_1 tempbar_3_5 OUT_92 OUT_93 OUT_94 OUT_95 vdd vss PBulkLine NBulkLine) twotofourdecoder
xinv6 (temp_6 tempbar_6 vdd vss PBulkLine NBulkLine) inverter
xdec1L6 (IN_2 IN_3 tempbar_6 temp_0_6 temp_1_6 temp_2_6 temp_3_6 vdd vss PBulkLine NBulkLine) twotofourdecoder
xinv_0_6 (temp_0_6 tempbar_0_6 vdd vss PBulkLine NBulkLine) inverter
xdec2L_0_6 (IN_0 IN_1 tempbar_0_6 OUT_96 OUT_97 OUT_98 OUT_99 vdd vss PBulkLine NBulkLine) twotofourdecoder
xinv_1_6 (temp_1_6 tempbar_1_6 vdd vss PBulkLine NBulkLine) inverter
xdec2L_1_6 (IN_0 IN_1 tempbar_1_6 OUT_100 OUT_101 OUT_102 OUT_103 vdd vss PBulkLine NBulkLine) twotofourdecoder
xinv_2_6 (temp_2_6 tempbar_2_6 vdd vss PBulkLine NBulkLine) inverter
xdec2L_2_6 (IN_0 IN_1 tempbar_2_6 OUT_104 OUT_105 OUT_106 OUT_107 vdd vss PBulkLine NBulkLine) twotofourdecoder
xinv_3_6 (temp_3_6 tempbar_3_6 vdd vss PBulkLine NBulkLine) inverter
xdec2L_3_6 (IN_0 IN_1 tempbar_3_6 OUT_108 OUT_109 OUT_110 OUT_111 vdd vss PBulkLine NBulkLine) twotofourdecoder
xinv7 (temp_7 tempbar_7 vdd vss PBulkLine NBulkLine) inverter
xdec1L7 (IN_2 IN_3 tempbar_7 temp_0_7 temp_1_7 temp_2_7 temp_3_7 vdd vss PBulkLine NBulkLine) twotofourdecoder
xinv_0_7 (temp_0_7 tempbar_0_7 vdd vss PBulkLine NBulkLine) inverter
xdec2L_0_7 (IN_0 IN_1 tempbar_0_7 OUT_112 OUT_113 OUT_114 OUT_115 vdd vss PBulkLine NBulkLine) twotofourdecoder
xinv_1_7 (temp_1_7 tempbar_1_7 vdd vss PBulkLine NBulkLine) inverter
xdec2L_1_7 (IN_0 IN_1 tempbar_1_7 OUT_116 OUT_117 OUT_118 OUT_119 vdd vss PBulkLine NBulkLine) twotofourdecoder
xinv_2_7 (temp_2_7 tempbar_2_7 vdd vss PBulkLine NBulkLine) inverter
xdec2L_2_7 (IN_0 IN_1 tempbar_2_7 OUT_120 OUT_121 OUT_122 OUT_123 vdd vss PBulkLine NBulkLine) twotofourdecoder
xinv_3_7 (temp_3_7 tempbar_3_7 vdd vss PBulkLine NBulkLine) inverter
xdec2L_3_7 (IN_0 IN_1 tempbar_3_7 OUT_124 OUT_125 OUT_126 OUT_127 vdd vss PBulkLine NBulkLine) twotofourdecoder


ends decoder
subckt decodereight (IN_0 IN_1 IN_2 IN_3 IN_4 IN_5 IN_6 IN_7 enable OUT_0 OUT_1 OUT_2 OUT_3 OUT_4 OUT_5 OUT_6 OUT_7 OUT_8 OUT_9 OUT_10 OUT_11 OUT_12 OUT_13 OUT_14 OUT_15 OUT_16 OUT_17 OUT_18 OUT_19 OUT_20 OUT_21 OUT_22 OUT_23 OUT_24 OUT_25 OUT_26 OUT_27 OUT_28 OUT_29 OUT_30 OUT_31 OUT_32 OUT_33 OUT_34 OUT_35 OUT_36 OUT_37 OUT_38 OUT_39 OUT_40 OUT_41 OUT_42 OUT_43 OUT_44 OUT_45 OUT_46 OUT_47 OUT_48 OUT_49 OUT_50 OUT_51 OUT_52 OUT_53 OUT_54 OUT_55 OUT_56 OUT_57 OUT_58 OUT_59 OUT_60 OUT_61 OUT_62 OUT_63 OUT_64 OUT_65 OUT_66 OUT_67 OUT_68 OUT_69 OUT_70 OUT_71 OUT_72 OUT_73 OUT_74 OUT_75 OUT_76 OUT_77 OUT_78 OUT_79 OUT_80 OUT_81 OUT_82 OUT_83 OUT_84 OUT_85 OUT_86 OUT_87 OUT_88 OUT_89 OUT_90 OUT_91 OUT_92 OUT_93 OUT_94 OUT_95 OUT_96 OUT_97 OUT_98 OUT_99 OUT_100 OUT_101 OUT_102 OUT_103 OUT_104 OUT_105 OUT_106 OUT_107 OUT_108 OUT_109 OUT_110 OUT_111 OUT_112 OUT_113 OUT_114 OUT_115 OUT_116 OUT_117 OUT_118 OUT_119 OUT_120 OUT_121 OUT_122 OUT_123 OUT_124 OUT_125 OUT_126 OUT_127 OUT_128 OUT_129 OUT_130 OUT_131 OUT_132 OUT_133 OUT_134 OUT_135 OUT_136 OUT_137 OUT_138 OUT_139 OUT_140 OUT_141 OUT_142 OUT_143 OUT_144 OUT_145 OUT_146 OUT_147 OUT_148 OUT_149 OUT_150 OUT_151 OUT_152 OUT_153 OUT_154 OUT_155 OUT_156 OUT_157 OUT_158 OUT_159 OUT_160 OUT_161 OUT_162 OUT_163 OUT_164 OUT_165 OUT_166 OUT_167 OUT_168 OUT_169 OUT_170 OUT_171 OUT_172 OUT_173 OUT_174 OUT_175 OUT_176 OUT_177 OUT_178 OUT_179 OUT_180 OUT_181 OUT_182 OUT_183 OUT_184 OUT_185 OUT_186 OUT_187 OUT_188 OUT_189 OUT_190 OUT_191 OUT_192 OUT_193 OUT_194 OUT_195 OUT_196 OUT_197 OUT_198 OUT_199 OUT_200 OUT_201 OUT_202 OUT_203 OUT_204 OUT_205 OUT_206 OUT_207 OUT_208 OUT_209 OUT_210 OUT_211 OUT_212 OUT_213 OUT_214 OUT_215 OUT_216 OUT_217 OUT_218 OUT_219 OUT_220 OUT_221 OUT_222 OUT_223 OUT_224 OUT_225 OUT_226 OUT_227 OUT_228 OUT_229 OUT_230 OUT_231 OUT_232 OUT_233 OUT_234 OUT_235 OUT_236 OUT_237 OUT_238 OUT_239 OUT_240 OUT_241 OUT_242 OUT_243 OUT_244 OUT_245 OUT_246 OUT_247 OUT_248 OUT_249 OUT_250 OUT_251 OUT_252 OUT_253 OUT_254 OUT_255 vdd vss NBulkLine PBulkLine)

xinv (enable enablebar vdd vss PBulkLine NBulkLine) inverter

dec (IN_4 IN_5 IN_6 IN_7 enablebar temp_0 temp_1 temp_2 temp_3 temp_4 temp_5 temp_6 temp_7 temp_8 temp_9 temp_10 temp_11 temp_12 temp_13 temp_14 temp_15 vdd vss PBulkLine NBulkLine) decoderfour
xinv0 (temp_0 tempbar_0 vdd vss PBulkLine NBulkLine) inverter
xdec0 (IN_0 IN_1 IN_2 IN_3 tempbar_0 OUT_0 OUT_1 OUT_2 OUT_3 OUT_4 OUT_5 OUT_6 OUT_7 OUT_8 OUT_9 OUT_10 OUT_11 OUT_12 OUT_13 OUT_14 OUT_15 vdd vss PBulkLine NBulkLine) decoderfour
xinv1 (temp_1 tempbar_1 vdd vss PBulkLine NBulkLine) inverter
xdec1 (IN_0 IN_1 IN_2 IN_3 tempbar_1 OUT_16 OUT_17 OUT_18 OUT_19 OUT_20 OUT_21 OUT_22 OUT_23 OUT_24 OUT_25 OUT_26 OUT_27 OUT_28 OUT_29 OUT_30 OUT_31 vdd vss PBulkLine NBulkLine) decoderfour
xinv2 (temp_2 tempbar_2 vdd vss PBulkLine NBulkLine) inverter
xdec2 (IN_0 IN_1 IN_2 IN_3 tempbar_2 OUT_32 OUT_33 OUT_34 OUT_35 OUT_36 OUT_37 OUT_38 OUT_39 OUT_40 OUT_41 OUT_42 OUT_43 OUT_44 OUT_45 OUT_46 OUT_47 vdd vss PBulkLine NBulkLine) decoderfour
xinv3 (temp_3 tempbar_3 vdd vss PBulkLine NBulkLine) inverter
xdec3 (IN_0 IN_1 IN_2 IN_3 tempbar_3 OUT_48 OUT_49 OUT_50 OUT_51 OUT_52 OUT_53 OUT_54 OUT_55 OUT_56 OUT_57 OUT_58 OUT_59 OUT_60 OUT_61 OUT_62 OUT_63 vdd vss PBulkLine NBulkLine) decoderfour
xinv4 (temp_4 tempbar_4 vdd vss PBulkLine NBulkLine) inverter
xdec4 (IN_0 IN_1 IN_2 IN_3 tempbar_4 OUT_64 OUT_65 OUT_66 OUT_67 OUT_68 OUT_69 OUT_70 OUT_71 OUT_72 OUT_73 OUT_74 OUT_75 OUT_76 OUT_77 OUT_78 OUT_79 vdd vss PBulkLine NBulkLine) decoderfour
xinv5 (temp_5 tempbar_5 vdd vss PBulkLine NBulkLine) inverter
xdec5 (IN_0 IN_1 IN_2 IN_3 tempbar_5 OUT_80 OUT_81 OUT_82 OUT_83 OUT_84 OUT_85 OUT_86 OUT_87 OUT_88 OUT_89 OUT_90 OUT_91 OUT_92 OUT_93 OUT_94 OUT_95 vdd vss PBulkLine NBulkLine) decoderfour
xinv6 (temp_6 tempbar_6 vdd vss PBulkLine NBulkLine) inverter
xdec6 (IN_0 IN_1 IN_2 IN_3 tempbar_6 OUT_96 OUT_97 OUT_98 OUT_99 OUT_100 OUT_101 OUT_102 OUT_103 OUT_104 OUT_105 OUT_106 OUT_107 OUT_108 OUT_109 OUT_110 OUT_111 vdd vss PBulkLine NBulkLine) decoderfour
xinv7 (temp_7 tempbar_7 vdd vss PBulkLine NBulkLine) inverter
xdec7 (IN_0 IN_1 IN_2 IN_3 tempbar_7 OUT_112 OUT_113 OUT_114 OUT_115 OUT_116 OUT_117 OUT_118 OUT_119 OUT_120 OUT_121 OUT_122 OUT_123 OUT_124 OUT_125 OUT_126 OUT_127 vdd vss PBulkLine NBulkLine) decoderfour
xinv8 (temp_8 tempbar_8 vdd vss PBulkLine NBulkLine) inverter
xdec8 (IN_0 IN_1 IN_2 IN_3 tempbar_8 OUT_128 OUT_129 OUT_130 OUT_131 OUT_132 OUT_133 OUT_134 OUT_135 OUT_136 OUT_137 OUT_138 OUT_139 OUT_140 OUT_141 OUT_142 OUT_143 vdd vss PBulkLine NBulkLine) decoderfour
xinv9 (temp_9 tempbar_9 vdd vss PBulkLine NBulkLine) inverter
xdec9 (IN_0 IN_1 IN_2 IN_3 tempbar_9 OUT_144 OUT_145 OUT_146 OUT_147 OUT_148 OUT_149 OUT_150 OUT_151 OUT_152 OUT_153 OUT_154 OUT_155 OUT_156 OUT_157 OUT_158 OUT_159 vdd vss PBulkLine NBulkLine) decoderfour
xinv10 (temp_10 tempbar_10 vdd vss PBulkLine NBulkLine) inverter
xdec10 (IN_0 IN_1 IN_2 IN_3 tempbar_10 OUT_160 OUT_161 OUT_162 OUT_163 OUT_164 OUT_165 OUT_166 OUT_167 OUT_168 OUT_169 OUT_170 OUT_171 OUT_172 OUT_173 OUT_174 OUT_175 vdd vss PBulkLine NBulkLine) decoderfour
xinv11 (temp_11 tempbar_11 vdd vss PBulkLine NBulkLine) inverter
xdec11 (IN_0 IN_1 IN_2 IN_3 tempbar_11 OUT_176 OUT_177 OUT_178 OUT_179 OUT_180 OUT_181 OUT_182 OUT_183 OUT_184 OUT_185 OUT_186 OUT_187 OUT_188 OUT_189 OUT_190 OUT_191 vdd vss PBulkLine NBulkLine) decoderfour
xinv12 (temp_12 tempbar_12 vdd vss PBulkLine NBulkLine) inverter
xdec12 (IN_0 IN_1 IN_2 IN_3 tempbar_12 OUT_192 OUT_193 OUT_194 OUT_195 OUT_196 OUT_197 OUT_198 OUT_199 OUT_200 OUT_201 OUT_202 OUT_203 OUT_204 OUT_205 OUT_206 OUT_207 vdd vss PBulkLine NBulkLine) decoderfour
xinv13 (temp_13 tempbar_13 vdd vss PBulkLine NBulkLine) inverter
xdec13 (IN_0 IN_1 IN_2 IN_3 tempbar_13 OUT_208 OUT_209 OUT_210 OUT_211 OUT_212 OUT_213 OUT_214 OUT_215 OUT_216 OUT_217 OUT_218 OUT_219 OUT_220 OUT_221 OUT_222 OUT_223 vdd vss PBulkLine NBulkLine) decoderfour
xinv14 (temp_14 tempbar_14 vdd vss PBulkLine NBulkLine) inverter
xdec14 (IN_0 IN_1 IN_2 IN_3 tempbar_14 OUT_224 OUT_225 OUT_226 OUT_227 OUT_228 OUT_229 OUT_230 OUT_231 OUT_232 OUT_233 OUT_234 OUT_235 OUT_236 OUT_237 OUT_238 OUT_239 vdd vss PBulkLine NBulkLine) decoderfour
xinv15 (temp_15 tempbar_15 vdd vss PBulkLine NBulkLine) inverter
xdec15 (IN_0 IN_1 IN_2 IN_3 tempbar_15 OUT_240 OUT_241 OUT_242 OUT_243 OUT_244 OUT_245 OUT_246 OUT_247 OUT_248 OUT_249 OUT_250 OUT_251 OUT_252 OUT_253 OUT_254 OUT_255 vdd vss PBulkLine NBulkLine) decoderfour


ends decoder
subckt decodernine (IN_0 IN_1 IN_2 IN_3 IN_4 IN_5 IN_6 IN_7 IN_8 enable OUT_0 OUT_1 OUT_2 OUT_3 OUT_4 OUT_5 OUT_6 OUT_7 OUT_8 OUT_9 OUT_10 OUT_11 OUT_12 OUT_13 OUT_14 OUT_15 OUT_16 OUT_17 OUT_18 OUT_19 OUT_20 OUT_21 OUT_22 OUT_23 OUT_24 OUT_25 OUT_26 OUT_27 OUT_28 OUT_29 OUT_30 OUT_31 OUT_32 OUT_33 OUT_34 OUT_35 OUT_36 OUT_37 OUT_38 OUT_39 OUT_40 OUT_41 OUT_42 OUT_43 OUT_44 OUT_45 OUT_46 OUT_47 OUT_48 OUT_49 OUT_50 OUT_51 OUT_52 OUT_53 OUT_54 OUT_55 OUT_56 OUT_57 OUT_58 OUT_59 OUT_60 OUT_61 OUT_62 OUT_63 OUT_64 OUT_65 OUT_66 OUT_67 OUT_68 OUT_69 OUT_70 OUT_71 OUT_72 OUT_73 OUT_74 OUT_75 OUT_76 OUT_77 OUT_78 OUT_79 OUT_80 OUT_81 OUT_82 OUT_83 OUT_84 OUT_85 OUT_86 OUT_87 OUT_88 OUT_89 OUT_90 OUT_91 OUT_92 OUT_93 OUT_94 OUT_95 OUT_96 OUT_97 OUT_98 OUT_99 OUT_100 OUT_101 OUT_102 OUT_103 OUT_104 OUT_105 OUT_106 OUT_107 OUT_108 OUT_109 OUT_110 OUT_111 OUT_112 OUT_113 OUT_114 OUT_115 OUT_116 OUT_117 OUT_118 OUT_119 OUT_120 OUT_121 OUT_122 OUT_123 OUT_124 OUT_125 OUT_126 OUT_127 OUT_128 OUT_129 OUT_130 OUT_131 OUT_132 OUT_133 OUT_134 OUT_135 OUT_136 OUT_137 OUT_138 OUT_139 OUT_140 OUT_141 OUT_142 OUT_143 OUT_144 OUT_145 OUT_146 OUT_147 OUT_148 OUT_149 OUT_150 OUT_151 OUT_152 OUT_153 OUT_154 OUT_155 OUT_156 OUT_157 OUT_158 OUT_159 OUT_160 OUT_161 OUT_162 OUT_163 OUT_164 OUT_165 OUT_166 OUT_167 OUT_168 OUT_169 OUT_170 OUT_171 OUT_172 OUT_173 OUT_174 OUT_175 OUT_176 OUT_177 OUT_178 OUT_179 OUT_180 OUT_181 OUT_182 OUT_183 OUT_184 OUT_185 OUT_186 OUT_187 OUT_188 OUT_189 OUT_190 OUT_191 OUT_192 OUT_193 OUT_194 OUT_195 OUT_196 OUT_197 OUT_198 OUT_199 OUT_200 OUT_201 OUT_202 OUT_203 OUT_204 OUT_205 OUT_206 OUT_207 OUT_208 OUT_209 OUT_210 OUT_211 OUT_212 OUT_213 OUT_214 OUT_215 OUT_216 OUT_217 OUT_218 OUT_219 OUT_220 OUT_221 OUT_222 OUT_223 OUT_224 OUT_225 OUT_226 OUT_227 OUT_228 OUT_229 OUT_230 OUT_231 OUT_232 OUT_233 OUT_234 OUT_235 OUT_236 OUT_237 OUT_238 OUT_239 OUT_240 OUT_241 OUT_242 OUT_243 OUT_244 OUT_245 OUT_246 OUT_247 OUT_248 OUT_249 OUT_250 OUT_251 OUT_252 OUT_253 OUT_254 OUT_255 OUT_256 OUT_257 OUT_258 OUT_259 OUT_260 OUT_261 OUT_262 OUT_263 OUT_264 OUT_265 OUT_266 OUT_267 OUT_268 OUT_269 OUT_270 OUT_271 OUT_272 OUT_273 OUT_274 OUT_275 OUT_276 OUT_277 OUT_278 OUT_279 OUT_280 OUT_281 OUT_282 OUT_283 OUT_284 OUT_285 OUT_286 OUT_287 OUT_288 OUT_289 OUT_290 OUT_291 OUT_292 OUT_293 OUT_294 OUT_295 OUT_296 OUT_297 OUT_298 OUT_299 OUT_300 OUT_301 OUT_302 OUT_303 OUT_304 OUT_305 OUT_306 OUT_307 OUT_308 OUT_309 OUT_310 OUT_311 OUT_312 OUT_313 OUT_314 OUT_315 OUT_316 OUT_317 OUT_318 OUT_319 OUT_320 OUT_321 OUT_322 OUT_323 OUT_324 OUT_325 OUT_326 OUT_327 OUT_328 OUT_329 OUT_330 OUT_331 OUT_332 OUT_333 OUT_334 OUT_335 OUT_336 OUT_337 OUT_338 OUT_339 OUT_340 OUT_341 OUT_342 OUT_343 OUT_344 OUT_345 OUT_346 OUT_347 OUT_348 OUT_349 OUT_350 OUT_351 OUT_352 OUT_353 OUT_354 OUT_355 OUT_356 OUT_357 OUT_358 OUT_359 OUT_360 OUT_361 OUT_362 OUT_363 OUT_364 OUT_365 OUT_366 OUT_367 OUT_368 OUT_369 OUT_370 OUT_371 OUT_372 OUT_373 OUT_374 OUT_375 OUT_376 OUT_377 OUT_378 OUT_379 OUT_380 OUT_381 OUT_382 OUT_383 OUT_384 OUT_385 OUT_386 OUT_387 OUT_388 OUT_389 OUT_390 OUT_391 OUT_392 OUT_393 OUT_394 OUT_395 OUT_396 OUT_397 OUT_398 OUT_399 OUT_400 OUT_401 OUT_402 OUT_403 OUT_404 OUT_405 OUT_406 OUT_407 OUT_408 OUT_409 OUT_410 OUT_411 OUT_412 OUT_413 OUT_414 OUT_415 OUT_416 OUT_417 OUT_418 OUT_419 OUT_420 OUT_421 OUT_422 OUT_423 OUT_424 OUT_425 OUT_426 OUT_427 OUT_428 OUT_429 OUT_430 OUT_431 OUT_432 OUT_433 OUT_434 OUT_435 OUT_436 OUT_437 OUT_438 OUT_439 OUT_440 OUT_441 OUT_442 OUT_443 OUT_444 OUT_445 OUT_446 OUT_447 OUT_448 OUT_449 OUT_450 OUT_451 OUT_452 OUT_453 OUT_454 OUT_455 OUT_456 OUT_457 OUT_458 OUT_459 OUT_460 OUT_461 OUT_462 OUT_463 OUT_464 OUT_465 OUT_466 OUT_467 OUT_468 OUT_469 OUT_470 OUT_471 OUT_472 OUT_473 OUT_474 OUT_475 OUT_476 OUT_477 OUT_478 OUT_479 OUT_480 OUT_481 OUT_482 OUT_483 OUT_484 OUT_485 OUT_486 OUT_487 OUT_488 OUT_489 OUT_490 OUT_491 OUT_492 OUT_493 OUT_494 OUT_495 OUT_496 OUT_497 OUT_498 OUT_499 OUT_500 OUT_501 OUT_502 OUT_503 OUT_504 OUT_505 OUT_506 OUT_507 OUT_508 OUT_509 OUT_510 OUT_511 vdd vss NBulkLine PBulkLine)

xinv (enable enablebar vdd vss PBulkLine NBulkLine) inverter

dec (IN_5 IN_6 IN_7 IN_8 enablebar temp_0 temp_1 temp_2 temp_3 temp_4 temp_5 temp_6 temp_7 temp_8 temp_9 temp_10 temp_11 temp_12 temp_13 temp_14 temp_15 vdd vss PBulkLine NBulkLine) decoderfour
xinv0 (temp_0 tempbar_0 vdd vss PBulkLine NBulkLine) inverter
xdec0 (IN_0 IN_1 IN_2 IN_3 IN_4 tempbar_0 OUT_0 OUT_1 OUT_2 OUT_3 OUT_4 OUT_5 OUT_6 OUT_7 OUT_8 OUT_9 OUT_10 OUT_11 OUT_12 OUT_13 OUT_14 OUT_15 OUT_16 OUT_17 OUT_18 OUT_19 OUT_20 OUT_21 OUT_22 OUT_23 OUT_24 OUT_25 OUT_26 OUT_27 OUT_28 OUT_29 OUT_30 OUT_31 vdd vss PBulkLine NBulkLine) decoderfive
xinv1 (temp_1 tempbar_1 vdd vss PBulkLine NBulkLine) inverter
xdec1 (IN_0 IN_1 IN_2 IN_3 IN_4 tempbar_1 OUT_32 OUT_33 OUT_34 OUT_35 OUT_36 OUT_37 OUT_38 OUT_39 OUT_40 OUT_41 OUT_42 OUT_43 OUT_44 OUT_45 OUT_46 OUT_47 OUT_48 OUT_49 OUT_50 OUT_51 OUT_52 OUT_53 OUT_54 OUT_55 OUT_56 OUT_57 OUT_58 OUT_59 OUT_60 OUT_61 OUT_62 OUT_63 vdd vss PBulkLine NBulkLine) decoderfive
xinv2 (temp_2 tempbar_2 vdd vss PBulkLine NBulkLine) inverter
xdec2 (IN_0 IN_1 IN_2 IN_3 IN_4 tempbar_2 OUT_64 OUT_65 OUT_66 OUT_67 OUT_68 OUT_69 OUT_70 OUT_71 OUT_72 OUT_73 OUT_74 OUT_75 OUT_76 OUT_77 OUT_78 OUT_79 OUT_80 OUT_81 OUT_82 OUT_83 OUT_84 OUT_85 OUT_86 OUT_87 OUT_88 OUT_89 OUT_90 OUT_91 OUT_92 OUT_93 OUT_94 OUT_95 vdd vss PBulkLine NBulkLine) decoderfive
xinv3 (temp_3 tempbar_3 vdd vss PBulkLine NBulkLine) inverter
xdec3 (IN_0 IN_1 IN_2 IN_3 IN_4 tempbar_3 OUT_96 OUT_97 OUT_98 OUT_99 OUT_100 OUT_101 OUT_102 OUT_103 OUT_104 OUT_105 OUT_106 OUT_107 OUT_108 OUT_109 OUT_110 OUT_111 OUT_112 OUT_113 OUT_114 OUT_115 OUT_116 OUT_117 OUT_118 OUT_119 OUT_120 OUT_121 OUT_122 OUT_123 OUT_124 OUT_125 OUT_126 OUT_127 vdd vss PBulkLine NBulkLine) decoderfive
xinv4 (temp_4 tempbar_4 vdd vss PBulkLine NBulkLine) inverter
xdec4 (IN_0 IN_1 IN_2 IN_3 IN_4 tempbar_4 OUT_128 OUT_129 OUT_130 OUT_131 OUT_132 OUT_133 OUT_134 OUT_135 OUT_136 OUT_137 OUT_138 OUT_139 OUT_140 OUT_141 OUT_142 OUT_143 OUT_144 OUT_145 OUT_146 OUT_147 OUT_148 OUT_149 OUT_150 OUT_151 OUT_152 OUT_153 OUT_154 OUT_155 OUT_156 OUT_157 OUT_158 OUT_159 vdd vss PBulkLine NBulkLine) decoderfive
xinv5 (temp_5 tempbar_5 vdd vss PBulkLine NBulkLine) inverter
xdec5 (IN_0 IN_1 IN_2 IN_3 IN_4 tempbar_5 OUT_160 OUT_161 OUT_162 OUT_163 OUT_164 OUT_165 OUT_166 OUT_167 OUT_168 OUT_169 OUT_170 OUT_171 OUT_172 OUT_173 OUT_174 OUT_175 OUT_176 OUT_177 OUT_178 OUT_179 OUT_180 OUT_181 OUT_182 OUT_183 OUT_184 OUT_185 OUT_186 OUT_187 OUT_188 OUT_189 OUT_190 OUT_191 vdd vss PBulkLine NBulkLine) decoderfive
xinv6 (temp_6 tempbar_6 vdd vss PBulkLine NBulkLine) inverter
xdec6 (IN_0 IN_1 IN_2 IN_3 IN_4 tempbar_6 OUT_192 OUT_193 OUT_194 OUT_195 OUT_196 OUT_197 OUT_198 OUT_199 OUT_200 OUT_201 OUT_202 OUT_203 OUT_204 OUT_205 OUT_206 OUT_207 OUT_208 OUT_209 OUT_210 OUT_211 OUT_212 OUT_213 OUT_214 OUT_215 OUT_216 OUT_217 OUT_218 OUT_219 OUT_220 OUT_221 OUT_222 OUT_223 vdd vss PBulkLine NBulkLine) decoderfive
xinv7 (temp_7 tempbar_7 vdd vss PBulkLine NBulkLine) inverter
xdec7 (IN_0 IN_1 IN_2 IN_3 IN_4 tempbar_7 OUT_224 OUT_225 OUT_226 OUT_227 OUT_228 OUT_229 OUT_230 OUT_231 OUT_232 OUT_233 OUT_234 OUT_235 OUT_236 OUT_237 OUT_238 OUT_239 OUT_240 OUT_241 OUT_242 OUT_243 OUT_244 OUT_245 OUT_246 OUT_247 OUT_248 OUT_249 OUT_250 OUT_251 OUT_252 OUT_253 OUT_254 OUT_255 vdd vss PBulkLine NBulkLine) decoderfive
xinv8 (temp_8 tempbar_8 vdd vss PBulkLine NBulkLine) inverter
xdec8 (IN_0 IN_1 IN_2 IN_3 IN_4 tempbar_8 OUT_256 OUT_257 OUT_258 OUT_259 OUT_260 OUT_261 OUT_262 OUT_263 OUT_264 OUT_265 OUT_266 OUT_267 OUT_268 OUT_269 OUT_270 OUT_271 OUT_272 OUT_273 OUT_274 OUT_275 OUT_276 OUT_277 OUT_278 OUT_279 OUT_280 OUT_281 OUT_282 OUT_283 OUT_284 OUT_285 OUT_286 OUT_287 vdd vss PBulkLine NBulkLine) decoderfive
xinv9 (temp_9 tempbar_9 vdd vss PBulkLine NBulkLine) inverter
xdec9 (IN_0 IN_1 IN_2 IN_3 IN_4 tempbar_9 OUT_288 OUT_289 OUT_290 OUT_291 OUT_292 OUT_293 OUT_294 OUT_295 OUT_296 OUT_297 OUT_298 OUT_299 OUT_300 OUT_301 OUT_302 OUT_303 OUT_304 OUT_305 OUT_306 OUT_307 OUT_308 OUT_309 OUT_310 OUT_311 OUT_312 OUT_313 OUT_314 OUT_315 OUT_316 OUT_317 OUT_318 OUT_319 vdd vss PBulkLine NBulkLine) decoderfive
xinv10 (temp_10 tempbar_10 vdd vss PBulkLine NBulkLine) inverter
xdec10 (IN_0 IN_1 IN_2 IN_3 IN_4 tempbar_10 OUT_320 OUT_321 OUT_322 OUT_323 OUT_324 OUT_325 OUT_326 OUT_327 OUT_328 OUT_329 OUT_330 OUT_331 OUT_332 OUT_333 OUT_334 OUT_335 OUT_336 OUT_337 OUT_338 OUT_339 OUT_340 OUT_341 OUT_342 OUT_343 OUT_344 OUT_345 OUT_346 OUT_347 OUT_348 OUT_349 OUT_350 OUT_351 vdd vss PBulkLine NBulkLine) decoderfive
xinv11 (temp_11 tempbar_11 vdd vss PBulkLine NBulkLine) inverter
xdec11 (IN_0 IN_1 IN_2 IN_3 IN_4 tempbar_11 OUT_352 OUT_353 OUT_354 OUT_355 OUT_356 OUT_357 OUT_358 OUT_359 OUT_360 OUT_361 OUT_362 OUT_363 OUT_364 OUT_365 OUT_366 OUT_367 OUT_368 OUT_369 OUT_370 OUT_371 OUT_372 OUT_373 OUT_374 OUT_375 OUT_376 OUT_377 OUT_378 OUT_379 OUT_380 OUT_381 OUT_382 OUT_383 vdd vss PBulkLine NBulkLine) decoderfive
xinv12 (temp_12 tempbar_12 vdd vss PBulkLine NBulkLine) inverter
xdec12 (IN_0 IN_1 IN_2 IN_3 IN_4 tempbar_12 OUT_384 OUT_385 OUT_386 OUT_387 OUT_388 OUT_389 OUT_390 OUT_391 OUT_392 OUT_393 OUT_394 OUT_395 OUT_396 OUT_397 OUT_398 OUT_399 OUT_400 OUT_401 OUT_402 OUT_403 OUT_404 OUT_405 OUT_406 OUT_407 OUT_408 OUT_409 OUT_410 OUT_411 OUT_412 OUT_413 OUT_414 OUT_415 vdd vss PBulkLine NBulkLine) decoderfive
xinv13 (temp_13 tempbar_13 vdd vss PBulkLine NBulkLine) inverter