simulator lang=spectre

include "CMOSlogic.scs"
subckt delayone (a_0 a_2 vss PBulkLine NBulkLine)

xinv_0 (a_0 a_1 vdd vss PBulkLine NBulkLine) inverter
xinv_1 (a_1 a_2 vdd vss PBulkLine NBulkLine) inverter

ends delay


subckt delaytwo (a_0 a_4 vss PBulkLine NBulkLine)

xinv_0 (a_0 a_1 vdd vss PBulkLine NBulkLine) inverter
xinv_1 (a_1 a_2 vdd vss PBulkLine NBulkLine) inverter
xinv_2 (a_2 a_3 vdd vss PBulkLine NBulkLine) inverter
xinv_3 (a_3 a_4 vdd vss PBulkLine NBulkLine) inverter

ends delay


subckt delaythree (a_0 a_6 vss PBulkLine NBulkLine)

xinv_0 (a_0 a_1 vdd vss PBulkLine NBulkLine) inverter
xinv_1 (a_1 a_2 vdd vss PBulkLine NBulkLine) inverter
xinv_2 (a_2 a_3 vdd vss PBulkLine NBulkLine) inverter
xinv_3 (a_3 a_4 vdd vss PBulkLine NBulkLine) inverter
xinv_4 (a_4 a_5 vdd vss PBulkLine NBulkLine) inverter
xinv_5 (a_5 a_6 vdd vss PBulkLine NBulkLine) inverter

ends delay


subckt delayfour (a_0 a_8 vss PBulkLine NBulkLine)

xinv_0 (a_0 a_1 vdd vss PBulkLine NBulkLine) inverter
xinv_1 (a_1 a_2 vdd vss PBulkLine NBulkLine) inverter
xinv_2 (a_2 a_3 vdd vss PBulkLine NBulkLine) inverter
xinv_3 (a_3 a_4 vdd vss PBulkLine NBulkLine) inverter
xinv_4 (a_4 a_5 vdd vss PBulkLine NBulkLine) inverter
xinv_5 (a_5 a_6 vdd vss PBulkLine NBulkLine) inverter
xinv_6 (a_6 a_7 vdd vss PBulkLine NBulkLine) inverter
xinv_7 (a_7 a_8 vdd vss PBulkLine NBulkLine) inverter

ends delay


subckt delayfive (a_0 a_10 vss PBulkLine NBulkLine)

xinv_0 (a_0 a_1 vdd vss PBulkLine NBulkLine) inverter
xinv_1 (a_1 a_2 vdd vss PBulkLine NBulkLine) inverter
xinv_2 (a_2 a_3 vdd vss PBulkLine NBulkLine) inverter
xinv_3 (a_3 a_4 vdd vss PBulkLine NBulkLine) inverter
xinv_4 (a_4 a_5 vdd vss PBulkLine NBulkLine) inverter
xinv_5 (a_5 a_6 vdd vss PBulkLine NBulkLine) inverter
xinv_6 (a_6 a_7 vdd vss PBulkLine NBulkLine) inverter
xinv_7 (a_7 a_8 vdd vss PBulkLine NBulkLine) inverter
xinv_8 (a_8 a_9 vdd vss PBulkLine NBulkLine) inverter
xinv_9 (a_9 a_10 vdd vss PBulkLine NBulkLine) inverter

ends delay


subckt delaysix (a_0 a_12 vss PBulkLine NBulkLine)

xinv_0 (a_0 a_1 vdd vss PBulkLine NBulkLine) inverter
xinv_1 (a_1 a_2 vdd vss PBulkLine NBulkLine) inverter
xinv_2 (a_2 a_3 vdd vss PBulkLine NBulkLine) inverter
xinv_3 (a_3 a_4 vdd vss PBulkLine NBulkLine) inverter
xinv_4 (a_4 a_5 vdd vss PBulkLine NBulkLine) inverter
xinv_5 (a_5 a_6 vdd vss PBulkLine NBulkLine) inverter
xinv_6 (a_6 a_7 vdd vss PBulkLine NBulkLine) inverter
xinv_7 (a_7 a_8 vdd vss PBulkLine NBulkLine) inverter
xinv_8 (a_8 a_9 vdd vss PBulkLine NBulkLine) inverter
xinv_9 (a_9 a_10 vdd vss PBulkLine NBulkLine) inverter
xinv_10 (a_10 a_11 vdd vss PBulkLine NBulkLine) inverter
xinv_11 (a_11 a_12 vdd vss PBulkLine NBulkLine) inverter

ends delay


subckt delayseven (a_0 a_14 vss PBulkLine NBulkLine)

xinv_0 (a_0 a_1 vdd vss PBulkLine NBulkLine) inverter
xinv_1 (a_1 a_2 vdd vss PBulkLine NBulkLine) inverter
xinv_2 (a_2 a_3 vdd vss PBulkLine NBulkLine) inverter
xinv_3 (a_3 a_4 vdd vss PBulkLine NBulkLine) inverter
xinv_4 (a_4 a_5 vdd vss PBulkLine NBulkLine) inverter
xinv_5 (a_5 a_6 vdd vss PBulkLine NBulkLine) inverter
xinv_6 (a_6 a_7 vdd vss PBulkLine NBulkLine) inverter
xinv_7 (a_7 a_8 vdd vss PBulkLine NBulkLine) inverter
xinv_8 (a_8 a_9 vdd vss PBulkLine NBulkLine) inverter
xinv_9 (a_9 a_10 vdd vss PBulkLine NBulkLine) inverter
xinv_10 (a_10 a_11 vdd vss PBulkLine NBulkLine) inverter
xinv_11 (a_11 a_12 vdd vss PBulkLine NBulkLine) inverter
xinv_12 (a_12 a_13 vdd vss PBulkLine NBulkLine) inverter
xinv_13 (a_13 a_14 vdd vss PBulkLine NBulkLine) inverter

ends delay


subckt delayeight (a_0 a_16 vss PBulkLine NBulkLine)

xinv_0 (a_0 a_1 vdd vss PBulkLine NBulkLine) inverter
xinv_1 (a_1 a_2 vdd vss PBulkLine NBulkLine) inverter
xinv_2 (a_2 a_3 vdd vss PBulkLine NBulkLine) inverter
xinv_3 (a_3 a_4 vdd vss PBulkLine NBulkLine) inverter
xinv_4 (a_4 a_5 vdd vss PBulkLine NBulkLine) inverter
xinv_5 (a_5 a_6 vdd vss PBulkLine NBulkLine) inverter
xinv_6 (a_6 a_7 vdd vss PBulkLine NBulkLine) inverter
xinv_7 (a_7 a_8 vdd vss PBulkLine NBulkLine) inverter
xinv_8 (a_8 a_9 vdd vss PBulkLine NBulkLine) inverter
xinv_9 (a_9 a_10 vdd vss PBulkLine NBulkLine) inverter
xinv_10 (a_10 a_11 vdd vss PBulkLine NBulkLine) inverter
xinv_11 (a_11 a_12 vdd vss PBulkLine NBulkLine) inverter
xinv_12 (a_12 a_13 vdd vss PBulkLine NBulkLine) inverter
xinv_13 (a_13 a_14 vdd vss PBulkLine NBulkLine) inverter
xinv_14 (a_14 a_15 vdd vss PBulkLine NBulkLine) inverter
xinv_15 (a_15 a_16 vdd vss PBulkLine NBulkLine) inverter

ends delay


subckt delaynine (a_0 a_18 vss PBulkLine NBulkLine)

xinv_0 (a_0 a_1 vdd vss PBulkLine NBulkLine) inverter
xinv_1 (a_1 a_2 vdd vss PBulkLine NBulkLine) inverter
xinv_2 (a_2 a_3 vdd vss PBulkLine NBulkLine) inverter
xinv_3 (a_3 a_4 vdd vss PBulkLine NBulkLine) inverter
xinv_4 (a_4 a_5 vdd vss PBulkLine NBulkLine) inverter
xinv_5 (a_5 a_6 vdd vss PBulkLine NBulkLine) inverter
xinv_6 (a_6 a_7 vdd vss PBulkLine NBulkLine) inverter
xinv_7 (a_7 a_8 vdd vss PBulkLine NBulkLine) inverter
xinv_8 (a_8 a_9 vdd vss PBulkLine NBulkLine) inverter
xinv_9 (a_9 a_10 vdd vss PBulkLine NBulkLine) inverter
xinv_10 (a_10 a_11 vdd vss PBulkLine NBulkLine) inverter
xinv_11 (a_11 a_12 vdd vss PBulkLine NBulkLine) inverter
xinv_12 (a_12 a_13 vdd vss PBulkLine NBulkLine) inverter
xinv_13 (a_13 a_14 vdd vss PBulkLine NBulkLine) inverter
xinv_14 (a_14 a_15 vdd vss PBulkLine NBulkLine) inverter
xinv_15 (a_15 a_16 vdd vss PBulkLine NBulkLine) inverter
xinv_16 (a_16 a_17 vdd vss PBulkLine NBulkLine) inverter
xinv_17 (a_17 a_18 vdd vss PBulkLine NBulkLine) inverter

ends delay


subckt delayten (a_0 a_20 vss PBulkLine NBulkLine)

xinv_0 (a_0 a_1 vdd vss PBulkLine NBulkLine) inverter
xinv_1 (a_1 a_2 vdd vss PBulkLine NBulkLine) inverter
xinv_2 (a_2 a_3 vdd vss PBulkLine NBulkLine) inverter
xinv_3 (a_3 a_4 vdd vss PBulkLine NBulkLine) inverter
xinv_4 (a_4 a_5 vdd vss PBulkLine NBulkLine) inverter
xinv_5 (a_5 a_6 vdd vss PBulkLine NBulkLine) inverter
xinv_6 (a_6 a_7 vdd vss PBulkLine NBulkLine) inverter
xinv_7 (a_7 a_8 vdd vss PBulkLine NBulkLine) inverter
xinv_8 (a_8 a_9 vdd vss PBulkLine NBulkLine) inverter
xinv_9 (a_9 a_10 vdd vss PBulkLine NBulkLine) inverter
xinv_10 (a_10 a_11 vdd vss PBulkLine NBulkLine) inverter
xinv_11 (a_11 a_12 vdd vss PBulkLine NBulkLine) inverter
xinv_12 (a_12 a_13 vdd vss PBulkLine NBulkLine) inverter
xinv_13 (a_13 a_14 vdd vss PBulkLine NBulkLine) inverter
xinv_14 (a_14 a_15 vdd vss PBulkLine NBulkLine) inverter
xinv_15 (a_15 a_16 vdd vss PBulkLine NBulkLine) inverter
xinv_16 (a_16 a_17 vdd vss PBulkLine NBulkLine) inverter
xinv_17 (a_17 a_18 vdd vss PBulkLine NBulkLine) inverter
xinv_18 (a_18 a_19 vdd vss PBulkLine NBulkLine) inverter
xinv_19 (a_19 a_20 vdd vss PBulkLine NBulkLine) inverter

ends delay


subckt delayeleven (a_0 a_22 vss PBulkLine NBulkLine)

xinv_0 (a_0 a_1 vdd vss PBulkLine NBulkLine) inverter
xinv_1 (a_1 a_2 vdd vss PBulkLine NBulkLine) inverter
xinv_2 (a_2 a_3 vdd vss PBulkLine NBulkLine) inverter
xinv_3 (a_3 a_4 vdd vss PBulkLine NBulkLine) inverter
xinv_4 (a_4 a_5 vdd vss PBulkLine NBulkLine) inverter
xinv_5 (a_5 a_6 vdd vss PBulkLine NBulkLine) inverter
xinv_6 (a_6 a_7 vdd vss PBulkLine NBulkLine) inverter
xinv_7 (a_7 a_8 vdd vss PBulkLine NBulkLine) inverter
xinv_8 (a_8 a_9 vdd vss PBulkLine NBulkLine) inverter
xinv_9 (a_9 a_10 vdd vss PBulkLine NBulkLine) inverter
xinv_10 (a_10 a_11 vdd vss PBulkLine NBulkLine) inverter
xinv_11 (a_11 a_12 vdd vss PBulkLine NBulkLine) inverter
xinv_12 (a_12 a_13 vdd vss PBulkLine NBulkLine) inverter
xinv_13 (a_13 a_14 vdd vss PBulkLine NBulkLine) inverter
xinv_14 (a_14 a_15 vdd vss PBulkLine NBulkLine) inverter
xinv_15 (a_15 a_16 vdd vss PBulkLine NBulkLine) inverter
xinv_16 (a_16 a_17 vdd vss PBulkLine NBulkLine) inverter
xinv_17 (a_17 a_18 vdd vss PBulkLine NBulkLine) inverter
xinv_18 (a_18 a_19 vdd vss PBulkLine NBulkLine) inverter
xinv_19 (a_19 a_20 vdd vss PBulkLine NBulkLine) inverter
xinv_20 (a_20 a_21 vdd vss PBulkLine NBulkLine) inverter
xinv_21 (a_21 a_22 vdd vss PBulkLine NBulkLine) inverter

ends delay


subckt delaytwelve (a_0 a_24 vss PBulkLine NBulkLine)

xinv_0 (a_0 a_1 vdd vss PBulkLine NBulkLine) inverter
xinv_1 (a_1 a_2 vdd vss PBulkLine NBulkLine) inverter
xinv_2 (a_2 a_3 vdd vss PBulkLine NBulkLine) inverter
xinv_3 (a_3 a_4 vdd vss PBulkLine NBulkLine) inverter
xinv_4 (a_4 a_5 vdd vss PBulkLine NBulkLine) inverter
xinv_5 (a_5 a_6 vdd vss PBulkLine NBulkLine) inverter
xinv_6 (a_6 a_7 vdd vss PBulkLine NBulkLine) inverter
xinv_7 (a_7 a_8 vdd vss PBulkLine NBulkLine) inverter
xinv_8 (a_8 a_9 vdd vss PBulkLine NBulkLine) inverter
xinv_9 (a_9 a_10 vdd vss PBulkLine NBulkLine) inverter
xinv_10 (a_10 a_11 vdd vss PBulkLine NBulkLine) inverter
xinv_11 (a_11 a_12 vdd vss PBulkLine NBulkLine) inverter
xinv_12 (a_12 a_13 vdd vss PBulkLine NBulkLine) inverter
xinv_13 (a_13 a_14 vdd vss PBulkLine NBulkLine) inverter
xinv_14 (a_14 a_15 vdd vss PBulkLine NBulkLine) inverter
xinv_15 (a_15 a_16 vdd vss PBulkLine NBulkLine) inverter
xinv_16 (a_16 a_17 vdd vss PBulkLine NBulkLine) inverter
xinv_17 (a_17 a_18 vdd vss PBulkLine NBulkLine) inverter
xinv_18 (a_18 a_19 vdd vss PBulkLine NBulkLine) inverter
xinv_19 (a_19 a_20 vdd vss PBulkLine NBulkLine) inverter
xinv_20 (a_20 a_21 vdd vss PBulkLine NBulkLine) inverter
xinv_21 (a_21 a_22 vdd vss PBulkLine NBulkLine) inverter
xinv_22 (a_22 a_23 vdd vss PBulkLine NBulkLine) inverter
xinv_23 (a_23 a_24 vdd vss PBulkLine NBulkLine) inverter

ends delay


subckt delaythirteen (a_0 a_26 vss PBulkLine NBulkLine)

xinv_0 (a_0 a_1 vdd vss PBulkLine NBulkLine) inverter
xinv_1 (a_1 a_2 vdd vss PBulkLine NBulkLine) inverter
xinv_2 (a_2 a_3 vdd vss PBulkLine NBulkLine) inverter
xinv_3 (a_3 a_4 vdd vss PBulkLine NBulkLine) inverter
xinv_4 (a_4 a_5 vdd vss PBulkLine NBulkLine) inverter
xinv_5 (a_5 a_6 vdd vss PBulkLine NBulkLine) inverter
xinv_6 (a_6 a_7 vdd vss PBulkLine NBulkLine) inverter
xinv_7 (a_7 a_8 vdd vss PBulkLine NBulkLine) inverter
xinv_8 (a_8 a_9 vdd vss PBulkLine NBulkLine) inverter
xinv_9 (a_9 a_10 vdd vss PBulkLine NBulkLine) inverter
xinv_10 (a_10 a_11 vdd vss PBulkLine NBulkLine) inverter
xinv_11 (a_11 a_12 vdd vss PBulkLine NBulkLine) inverter
xinv_12 (a_12 a_13 vdd vss PBulkLine NBulkLine) inverter
xinv_13 (a_13 a_14 vdd vss PBulkLine NBulkLine) inverter
xinv_14 (a_14 a_15 vdd vss PBulkLine NBulkLine) inverter
xinv_15 (a_15 a_16 vdd vss PBulkLine NBulkLine) inverter
xinv_16 (a_16 a_17 vdd vss PBulkLine NBulkLine) inverter
xinv_17 (a_17 a_18 vdd vss PBulkLine NBulkLine) inverter
xinv_18 (a_18 a_19 vdd vss PBulkLine NBulkLine) inverter
xinv_19 (a_19 a_20 vdd vss PBulkLine NBulkLine) inverter
xinv_20 (a_20 a_21 vdd vss PBulkLine NBulkLine) inverter
xinv_21 (a_21 a_22 vdd vss PBulkLine NBulkLine) inverter
xinv_22 (a_22 a_23 vdd vss PBulkLine NBulkLine) inverter
xinv_23 (a_23 a_24 vdd vss PBulkLine NBulkLine) inverter
xinv_24 (a_24 a_25 vdd vss PBulkLine NBulkLine) inverter
xinv_25 (a_25 a_26 vdd vss PBulkLine NBulkLine) inverter

ends delay


subckt delayfourteen (a_0 a_28 vss PBulkLine NBulkLine)

xinv_0 (a_0 a_1 vdd vss PBulkLine NBulkLine) inverter
xinv_1 (a_1 a_2 vdd vss PBulkLine NBulkLine) inverter
xinv_2 (a_2 a_3 vdd vss PBulkLine NBulkLine) inverter
xinv_3 (a_3 a_4 vdd vss PBulkLine NBulkLine) inverter
xinv_4 (a_4 a_5 vdd vss PBulkLine NBulkLine) inverter
xinv_5 (a_5 a_6 vdd vss PBulkLine NBulkLine) inverter
xinv_6 (a_6 a_7 vdd vss PBulkLine NBulkLine) inverter
xinv_7 (a_7 a_8 vdd vss PBulkLine NBulkLine) inverter
xinv_8 (a_8 a_9 vdd vss PBulkLine NBulkLine) inverter
xinv_9 (a_9 a_10 vdd vss PBulkLine NBulkLine) inverter
xinv_10 (a_10 a_11 vdd vss PBulkLine NBulkLine) inverter
xinv_11 (a_11 a_12 vdd vss PBulkLine NBulkLine) inverter
xinv_12 (a_12 a_13 vdd vss PBulkLine NBulkLine) inverter
xinv_13 (a_13 a_14 vdd vss PBulkLine NBulkLine) inverter
xinv_14 (a_14 a_15 vdd vss PBulkLine NBulkLine) inverter
xinv_15 (a_15 a_16 vdd vss PBulkLine NBulkLine) inverter
xinv_16 (a_16 a_17 vdd vss PBulkLine NBulkLine) inverter
xinv_17 (a_17 a_18 vdd vss PBulkLine NBulkLine) inverter
xinv_18 (a_18 a_19 vdd vss PBulkLine NBulkLine) inverter
xinv_19 (a_19 a_20 vdd vss PBulkLine NBulkLine) inverter
xinv_20 (a_20 a_21 vdd vss PBulkLine NBulkLine) inverter
xinv_21 (a_21 a_22 vdd vss PBulkLine NBulkLine) inverter
xinv_22 (a_22 a_23 vdd vss PBulkLine NBulkLine) inverter
xinv_23 (a_23 a_24 vdd vss PBulkLine NBulkLine) inverter
xinv_24 (a_24 a_25 vdd vss PBulkLine NBulkLine) inverter
xinv_25 (a_25 a_26 vdd vss PBulkLine NBulkLine) inverter
xinv_26 (a_26 a_27 vdd vss PBulkLine NBulkLine) inverter
xinv_27 (a_27 a_28 vdd vss PBulkLine NBulkLine) inverter

ends delay


subckt delayfifteen (a_0 a_30 vss PBulkLine NBulkLine)

xinv_0 (a_0 a_1 vdd vss PBulkLine NBulkLine) inverter
xinv_1 (a_1 a_2 vdd vss PBulkLine NBulkLine) inverter
xinv_2 (a_2 a_3 vdd vss PBulkLine NBulkLine) inverter
xinv_3 (a_3 a_4 vdd vss PBulkLine NBulkLine) inverter
xinv_4 (a_4 a_5 vdd vss PBulkLine NBulkLine) inverter
xinv_5 (a_5 a_6 vdd vss PBulkLine NBulkLine) inverter
xinv_6 (a_6 a_7 vdd vss PBulkLine NBulkLine) inverter
xinv_7 (a_7 a_8 vdd vss PBulkLine NBulkLine) inverter
xinv_8 (a_8 a_9 vdd vss PBulkLine NBulkLine) inverter
xinv_9 (a_9 a_10 vdd vss PBulkLine NBulkLine) inverter
xinv_10 (a_10 a_11 vdd vss PBulkLine NBulkLine) inverter
xinv_11 (a_11 a_12 vdd vss PBulkLine NBulkLine) inverter
xinv_12 (a_12 a_13 vdd vss PBulkLine NBulkLine) inverter
xinv_13 (a_13 a_14 vdd vss PBulkLine NBulkLine) inverter
xinv_14 (a_14 a_15 vdd vss PBulkLine NBulkLine) inverter
xinv_15 (a_15 a_16 vdd vss PBulkLine NBulkLine) inverter
xinv_16 (a_16 a_17 vdd vss PBulkLine NBulkLine) inverter
xinv_17 (a_17 a_18 vdd vss PBulkLine NBulkLine) inverter
xinv_18 (a_18 a_19 vdd vss PBulkLine NBulkLine) inverter
xinv_19 (a_19 a_20 vdd vss PBulkLine NBulkLine) inverter
xinv_20 (a_20 a_21 vdd vss PBulkLine NBulkLine) inverter
xinv_21 (a_21 a_22 vdd vss PBulkLine NBulkLine) inverter
xinv_22 (a_22 a_23 vdd vss PBulkLine NBulkLine) inverter
xinv_23 (a_23 a_24 vdd vss PBulkLine NBulkLine) inverter
xinv_24 (a_24 a_25 vdd vss PBulkLine NBulkLine) inverter
xinv_25 (a_25 a_26 vdd vss PBulkLine NBulkLine) inverter
xinv_26 (a_26 a_27 vdd vss PBulkLine NBulkLine) inverter
xinv_27 (a_27 a_28 vdd vss PBulkLine NBulkLine) inverter
xinv_28 (a_28 a_29 vdd vss PBulkLine NBulkLine) inverter
xinv_29 (a_29 a_30 vdd vss PBulkLine NBulkLine) inverter

ends delay


subckt delaysixteen (a_0 a_32 vss PBulkLine NBulkLine)

xinv_0 (a_0 a_1 vdd vss PBulkLine NBulkLine) inverter
xinv_1 (a_1 a_2 vdd vss PBulkLine NBulkLine) inverter
xinv_2 (a_2 a_3 vdd vss PBulkLine NBulkLine) inverter
xinv_3 (a_3 a_4 vdd vss PBulkLine NBulkLine) inverter
xinv_4 (a_4 a_5 vdd vss PBulkLine NBulkLine) inverter
xinv_5 (a_5 a_6 vdd vss PBulkLine NBulkLine) inverter
xinv_6 (a_6 a_7 vdd vss PBulkLine NBulkLine) inverter
xinv_7 (a_7 a_8 vdd vss PBulkLine NBulkLine) inverter
xinv_8 (a_8 a_9 vdd vss PBulkLine NBulkLine) inverter
xinv_9 (a_9 a_10 vdd vss PBulkLine NBulkLine) inverter
xinv_10 (a_10 a_11 vdd vss PBulkLine NBulkLine) inverter
xinv_11 (a_11 a_12 vdd vss PBulkLine NBulkLine) inverter
xinv_12 (a_12 a_13 vdd vss PBulkLine NBulkLine) inverter
xinv_13 (a_13 a_14 vdd vss PBulkLine NBulkLine) inverter
xinv_14 (a_14 a_15 vdd vss PBulkLine NBulkLine) inverter
xinv_15 (a_15 a_16 vdd vss PBulkLine NBulkLine) inverter
xinv_16 (a_16 a_17 vdd vss PBulkLine NBulkLine) inverter
xinv_17 (a_17 a_18 vdd vss PBulkLine NBulkLine) inverter
xinv_18 (a_18 a_19 vdd vss PBulkLine NBulkLine) inverter
xinv_19 (a_19 a_20 vdd vss PBulkLine NBulkLine) inverter
xinv_20 (a_20 a_21 vdd vss PBulkLine NBulkLine) inverter
xinv_21 (a_21 a_22 vdd vss PBulkLine NBulkLine) inverter
xinv_22 (a_22 a_23 vdd vss PBulkLine NBulkLine) inverter
xinv_23 (a_23 a_24 vdd vss PBulkLine NBulkLine) inverter
xinv_24 (a_24 a_25 vdd vss PBulkLine NBulkLine) inverter
xinv_25 (a_25 a_26 vdd vss PBulkLine NBulkLine) inverter
xinv_26 (a_26 a_27 vdd vss PBulkLine NBulkLine) inverter
xinv_27 (a_27 a_28 vdd vss PBulkLine NBulkLine) inverter
xinv_28 (a_28 a_29 vdd vss PBulkLine NBulkLine) inverter
xinv_29 (a_29 a_30 vdd vss PBulkLine NBulkLine) inverter
xinv_30 (a_30 a_31 vdd vss PBulkLine NBulkLine) inverter
xinv_31 (a_31 a_32 vdd vss PBulkLine NBulkLine) inverter

ends delay


subckt delayseventeen (a_0 a_34 vss PBulkLine NBulkLine)

xinv_0 (a_0 a_1 vdd vss PBulkLine NBulkLine) inverter
xinv_1 (a_1 a_2 vdd vss PBulkLine NBulkLine) inverter
xinv_2 (a_2 a_3 vdd vss PBulkLine NBulkLine) inverter
xinv_3 (a_3 a_4 vdd vss PBulkLine NBulkLine) inverter
xinv_4 (a_4 a_5 vdd vss PBulkLine NBulkLine) inverter
xinv_5 (a_5 a_6 vdd vss PBulkLine NBulkLine) inverter
xinv_6 (a_6 a_7 vdd vss PBulkLine NBulkLine) inverter
xinv_7 (a_7 a_8 vdd vss PBulkLine NBulkLine) inverter
xinv_8 (a_8 a_9 vdd vss PBulkLine NBulkLine) inverter
xinv_9 (a_9 a_10 vdd vss PBulkLine NBulkLine) inverter
xinv_10 (a_10 a_11 vdd vss PBulkLine NBulkLine) inverter
xinv_11 (a_11 a_12 vdd vss PBulkLine NBulkLine) inverter
xinv_12 (a_12 a_13 vdd vss PBulkLine NBulkLine) inverter
xinv_13 (a_13 a_14 vdd vss PBulkLine NBulkLine) inverter
xinv_14 (a_14 a_15 vdd vss PBulkLine NBulkLine) inverter
xinv_15 (a_15 a_16 vdd vss PBulkLine NBulkLine) inverter
xinv_16 (a_16 a_17 vdd vss PBulkLine NBulkLine) inverter
xinv_17 (a_17 a_18 vdd vss PBulkLine NBulkLine) inverter
xinv_18 (a_18 a_19 vdd vss PBulkLine NBulkLine) inverter
xinv_19 (a_19 a_20 vdd vss PBulkLine NBulkLine) inverter
xinv_20 (a_20 a_21 vdd vss PBulkLine NBulkLine) inverter
xinv_21 (a_21 a_22 vdd vss PBulkLine NBulkLine) inverter
xinv_22 (a_22 a_23 vdd vss PBulkLine NBulkLine) inverter
xinv_23 (a_23 a_24 vdd vss PBulkLine NBulkLine) inverter
xinv_24 (a_24 a_25 vdd vss PBulkLine NBulkLine) inverter
xinv_25 (a_25 a_26 vdd vss PBulkLine NBulkLine) inverter
xinv_26 (a_26 a_27 vdd vss PBulkLine NBulkLine) inverter
xinv_27 (a_27 a_28 vdd vss PBulkLine NBulkLine) inverter
xinv_28 (a_28 a_29 vdd vss PBulkLine NBulkLine) inverter
xinv_29 (a_29 a_30 vdd vss PBulkLine NBulkLine) inverter
xinv_30 (a_30 a_31 vdd vss PBulkLine NBulkLine) inverter
xinv_31 (a_31 a_32 vdd vss PBulkLine NBulkLine) inverter
xinv_32 (a_32 a_33 vdd vss PBulkLine NBulkLine) inverter
xinv_33 (a_33 a_34 vdd vss PBulkLine NBulkLine) inverter

ends delay


subckt delayeighteen (a_0 a_36 vss PBulkLine NBulkLine)

xinv_0 (a_0 a_1 vdd vss PBulkLine NBulkLine) inverter
xinv_1 (a_1 a_2 vdd vss PBulkLine NBulkLine) inverter
xinv_2 (a_2 a_3 vdd vss PBulkLine NBulkLine) inverter
xinv_3 (a_3 a_4 vdd vss PBulkLine NBulkLine) inverter
xinv_4 (a_4 a_5 vdd vss PBulkLine NBulkLine) inverter
xinv_5 (a_5 a_6 vdd vss PBulkLine NBulkLine) inverter
xinv_6 (a_6 a_7 vdd vss PBulkLine NBulkLine) inverter
xinv_7 (a_7 a_8 vdd vss PBulkLine NBulkLine) inverter
xinv_8 (a_8 a_9 vdd vss PBulkLine NBulkLine) inverter
xinv_9 (a_9 a_10 vdd vss PBulkLine NBulkLine) inverter
xinv_10 (a_10 a_11 vdd vss PBulkLine NBulkLine) inverter
xinv_11 (a_11 a_12 vdd vss PBulkLine NBulkLine) inverter
xinv_12 (a_12 a_13 vdd vss PBulkLine NBulkLine) inverter
xinv_13 (a_13 a_14 vdd vss PBulkLine NBulkLine) inverter
xinv_14 (a_14 a_15 vdd vss PBulkLine NBulkLine) inverter
xinv_15 (a_15 a_16 vdd vss PBulkLine NBulkLine) inverter
xinv_16 (a_16 a_17 vdd vss PBulkLine NBulkLine) inverter
xinv_17 (a_17 a_18 vdd vss PBulkLine NBulkLine) inverter
xinv_18 (a_18 a_19 vdd vss PBulkLine NBulkLine) inverter
xinv_19 (a_19 a_20 vdd vss PBulkLine NBulkLine) inverter
xinv_20 (a_20 a_21 vdd vss PBulkLine NBulkLine) inverter
xinv_21 (a_21 a_22 vdd vss PBulkLine NBulkLine) inverter
xinv_22 (a_22 a_23 vdd vss PBulkLine NBulkLine) inverter
xinv_23 (a_23 a_24 vdd vss PBulkLine NBulkLine) inverter
xinv_24 (a_24 a_25 vdd vss PBulkLine NBulkLine) inverter
xinv_25 (a_25 a_26 vdd vss PBulkLine NBulkLine) inverter
xinv_26 (a_26 a_27 vdd vss PBulkLine NBulkLine) inverter
xinv_27 (a_27 a_28 vdd vss PBulkLine NBulkLine) inverter
xinv_28 (a_28 a_29 vdd vss PBulkLine NBulkLine) inverter
xinv_29 (a_29 a_30 vdd vss PBulkLine NBulkLine) inverter
xinv_30 (a_30 a_31 vdd vss PBulkLine NBulkLine) inverter
xinv_31 (a_31 a_32 vdd vss PBulkLine NBulkLine) inverter
xinv_32 (a_32 a_33 vdd vss PBulkLine NBulkLine) inverter
xinv_33 (a_33 a_34 vdd vss PBulkLine NBulkLine) inverter
xinv_34 (a_34 a_35 vdd vss PBulkLine NBulkLine) inverter
xinv_35 (a_35 a_36 vdd vss PBulkLine NBulkLine) inverter

ends delay


subckt delaynineteen (a_0 a_38 vss PBulkLine NBulkLine)

xinv_0 (a_0 a_1 vdd vss PBulkLine NBulkLine) inverter
xinv_1 (a_1 a_2 vdd vss PBulkLine NBulkLine) inverter
xinv_2 (a_2 a_3 vdd vss PBulkLine NBulkLine) inverter
xinv_3 (a_3 a_4 vdd vss PBulkLine NBulkLine) inverter
xinv_4 (a_4 a_5 vdd vss PBulkLine NBulkLine) inverter
xinv_5 (a_5 a_6 vdd vss PBulkLine NBulkLine) inverter
xinv_6 (a_6 a_7 vdd vss PBulkLine NBulkLine) inverter
xinv_7 (a_7 a_8 vdd vss PBulkLine NBulkLine) inverter
xinv_8 (a_8 a_9 vdd vss PBulkLine NBulkLine) inverter
xinv_9 (a_9 a_10 vdd vss PBulkLine NBulkLine) inverter
xinv_10 (a_10 a_11 vdd vss PBulkLine NBulkLine) inverter
xinv_11 (a_11 a_12 vdd vss PBulkLine NBulkLine) inverter
xinv_12 (a_12 a_13 vdd vss PBulkLine NBulkLine) inverter
xinv_13 (a_13 a_14 vdd vss PBulkLine NBulkLine) inverter
xinv_14 (a_14 a_15 vdd vss PBulkLine NBulkLine) inverter
xinv_15 (a_15 a_16 vdd vss PBulkLine NBulkLine) inverter
xinv_16 (a_16 a_17 vdd vss PBulkLine NBulkLine) inverter
xinv_17 (a_17 a_18 vdd vss PBulkLine NBulkLine) inverter
xinv_18 (a_18 a_19 vdd vss PBulkLine NBulkLine) inverter
xinv_19 (a_19 a_20 vdd vss PBulkLine NBulkLine) inverter
xinv_20 (a_20 a_21 vdd vss PBulkLine NBulkLine) inverter
xinv_21 (a_21 a_22 vdd vss PBulkLine NBulkLine) inverter
xinv_22 (a_22 a_23 vdd vss PBulkLine NBulkLine) inverter
xinv_23 (a_23 a_24 vdd vss PBulkLine NBulkLine) inverter
xinv_24 (a_24 a_25 vdd vss PBulkLine NBulkLine) inverter
xinv_25 (a_25 a_26 vdd vss PBulkLine NBulkLine) inverter
xinv_26 (a_26 a_27 vdd vss PBulkLine NBulkLine) inverter
xinv_27 (a_27 a_28 vdd vss PBulkLine NBulkLine) inverter
xinv_28 (a_28 a_29 vdd vss PBulkLine NBulkLine) inverter
xinv_29 (a_29 a_30 vdd vss PBulkLine NBulkLine) inverter
xinv_30 (a_30 a_31 vdd vss PBulkLine NBulkLine) inverter
xinv_31 (a_31 a_32 vdd vss PBulkLine NBulkLine) inverter
xinv_32 (a_32 a_33 vdd vss PBulkLine NBulkLine) inverter
xinv_33 (a_33 a_34 vdd vss PBulkLine NBulkLine) inverter
xinv_34 (a_34 a_35 vdd vss PBulkLine NBulkLine) inverter
xinv_35 (a_35 a_36 vdd vss PBulkLine NBulkLine) inverter
xinv_36 (a_36 a_37 vdd vss PBulkLine NBulkLine) inverter
xinv_37 (a_37 a_38 vdd vss PBulkLine NBulkLine) inverter

ends delay


subckt delaytwenty (a_0 a_40 vss PBulkLine NBulkLine)

xinv_0 (a_0 a_1 vdd vss PBulkLine NBulkLine) inverter
xinv_1 (a_1 a_2 vdd vss PBulkLine NBulkLine) inverter
xinv_2 (a_2 a_3 vdd vss PBulkLine NBulkLine) inverter
xinv_3 (a_3 a_4 vdd vss PBulkLine NBulkLine) inverter
xinv_4 (a_4 a_5 vdd vss PBulkLine NBulkLine) inverter
xinv_5 (a_5 a_6 vdd vss PBulkLine NBulkLine) inverter
xinv_6 (a_6 a_7 vdd vss PBulkLine NBulkLine) inverter
xinv_7 (a_7 a_8 vdd vss PBulkLine NBulkLine) inverter
xinv_8 (a_8 a_9 vdd vss PBulkLine NBulkLine) inverter
xinv_9 (a_9 a_10 vdd vss PBulkLine NBulkLine) inverter
xinv_10 (a_10 a_11 vdd vss PBulkLine NBulkLine) inverter
xinv_11 (a_11 a_12 vdd vss PBulkLine NBulkLine) inverter
xinv_12 (a_12 a_13 vdd vss PBulkLine NBulkLine) inverter
xinv_13 (a_13 a_14 vdd vss PBulkLine NBulkLine) inverter
xinv_14 (a_14 a_15 vdd vss PBulkLine NBulkLine) inverter
xinv_15 (a_15 a_16 vdd vss PBulkLine NBulkLine) inverter
xinv_16 (a_16 a_17 vdd vss PBulkLine NBulkLine) inverter
xinv_17 (a_17 a_18 vdd vss PBulkLine NBulkLine) inverter
xinv_18 (a_18 a_19 vdd vss PBulkLine NBulkLine) inverter
xinv_19 (a_19 a_20 vdd vss PBulkLine NBulkLine) inverter
xinv_20 (a_20 a_21 vdd vss PBulkLine NBulkLine) inverter
xinv_21 (a_21 a_22 vdd vss PBulkLine NBulkLine) inverter
xinv_22 (a_22 a_23 vdd vss PBulkLine NBulkLine) inverter
xinv_23 (a_23 a_24 vdd vss PBulkLine NBulkLine) inverter
xinv_24 (a_24 a_25 vdd vss PBulkLine NBulkLine) inverter
xinv_25 (a_25 a_26 vdd vss PBulkLine NBulkLine) inverter
xinv_26 (a_26 a_27 vdd vss PBulkLine NBulkLine) inverter
xinv_27 (a_27 a_28 vdd vss PBulkLine NBulkLine) inverter
xinv_28 (a_28 a_29 vdd vss PBulkLine NBulkLine) inverter
xinv_29 (a_29 a_30 vdd vss PBulkLine NBulkLine) inverter
xinv_30 (a_30 a_31 vdd vss PBulkLine NBulkLine) inverter
xinv_31 (a_31 a_32 vdd vss PBulkLine NBulkLine) inverter
xinv_32 (a_32 a_33 vdd vss PBulkLine NBulkLine) inverter
xinv_33 (a_33 a_34 vdd vss PBulkLine NBulkLine) inverter
xinv_34 (a_34 a_35 vdd vss PBulkLine NBulkLine) inverter
xinv_35 (a_35 a_36 vdd vss PBulkLine NBulkLine) inverter
xinv_36 (a_36 a_37 vdd vss PBulkLine NBulkLine) inverter
xinv_37 (a_37 a_38 vdd vss PBulkLine NBulkLine) inverter
xinv_38 (a_38 a_39 vdd vss PBulkLine NBulkLine) inverter
xinv_39 (a_39 a_40 vdd vss PBulkLine NBulkLine) inverter

ends delay


subckt delaytwentyone (a_0 a_42 vss PBulkLine NBulkLine)

xinv_0 (a_0 a_1 vdd vss PBulkLine NBulkLine) inverter
xinv_1 (a_1 a_2 vdd vss PBulkLine NBulkLine) inverter
xinv_2 (a_2 a_3 vdd vss PBulkLine NBulkLine) inverter
xinv_3 (a_3 a_4 vdd vss PBulkLine NBulkLine) inverter
xinv_4 (a_4 a_5 vdd vss PBulkLine NBulkLine) inverter
xinv_5 (a_5 a_6 vdd vss PBulkLine NBulkLine) inverter
xinv_6 (a_6 a_7 vdd vss PBulkLine NBulkLine) inverter
xinv_7 (a_7 a_8 vdd vss PBulkLine NBulkLine) inverter
xinv_8 (a_8 a_9 vdd vss PBulkLine NBulkLine) inverter
xinv_9 (a_9 a_10 vdd vss PBulkLine NBulkLine) inverter
xinv_10 (a_10 a_11 vdd vss PBulkLine NBulkLine) inverter
xinv_11 (a_11 a_12 vdd vss PBulkLine NBulkLine) inverter
xinv_12 (a_12 a_13 vdd vss PBulkLine NBulkLine) inverter
xinv_13 (a_13 a_14 vdd vss PBulkLine NBulkLine) inverter
xinv_14 (a_14 a_15 vdd vss PBulkLine NBulkLine) inverter
xinv_15 (a_15 a_16 vdd vss PBulkLine NBulkLine) inverter
xinv_16 (a_16 a_17 vdd vss PBulkLine NBulkLine) inverter
xinv_17 (a_17 a_18 vdd vss PBulkLine NBulkLine) inverter
xinv_18 (a_18 a_19 vdd vss PBulkLine NBulkLine) inverter
xinv_19 (a_19 a_20 vdd vss PBulkLine NBulkLine) inverter
xinv_20 (a_20 a_21 vdd vss PBulkLine NBulkLine) inverter
xinv_21 (a_21 a_22 vdd vss PBulkLine NBulkLine) inverter
xinv_22 (a_22 a_23 vdd vss PBulkLine NBulkLine) inverter
xinv_23 (a_23 a_24 vdd vss PBulkLine NBulkLine) inverter
xinv_24 (a_24 a_25 vdd vss PBulkLine NBulkLine) inverter
xinv_25 (a_25 a_26 vdd vss PBulkLine NBulkLine) inverter
xinv_26 (a_26 a_27 vdd vss PBulkLine NBulkLine) inverter
xinv_27 (a_27 a_28 vdd vss PBulkLine NBulkLine) inverter
xinv_28 (a_28 a_29 vdd vss PBulkLine NBulkLine) inverter
xinv_29 (a_29 a_30 vdd vss PBulkLine NBulkLine) inverter
xinv_30 (a_30 a_31 vdd vss PBulkLine NBulkLine) inverter
xinv_31 (a_31 a_32 vdd vss PBulkLine NBulkLine) inverter
xinv_32 (a_32 a_33 vdd vss PBulkLine NBulkLine) inverter
xinv_33 (a_33 a_34 vdd vss PBulkLine NBulkLine) inverter
xinv_34 (a_34 a_35 vdd vss PBulkLine NBulkLine) inverter
xinv_35 (a_35 a_36 vdd vss PBulkLine NBulkLine) inverter
xinv_36 (a_36 a_37 vdd vss PBulkLine NBulkLine) inverter
xinv_37 (a_37 a_38 vdd vss PBulkLine NBulkLine) inverter
xinv_38 (a_38 a_39 vdd vss PBulkLine NBulkLine) inverter
xinv_39 (a_39 a_40 vdd vss PBulkLine NBulkLine) inverter
xinv_40 (a_40 a_41 vdd vss PBulkLine NBulkLine) inverter
xinv_41 (a_41 a_42 vdd vss PBulkLine NBulkLine) inverter

ends delay


subckt delaytwentytwo (a_0 a_44 vss PBulkLine NBulkLine)

xinv_0 (a_0 a_1 vdd vss PBulkLine NBulkLine) inverter
xinv_1 (a_1 a_2 vdd vss PBulkLine NBulkLine) inverter
xinv_2 (a_2 a_3 vdd vss PBulkLine NBulkLine) inverter
xinv_3 (a_3 a_4 vdd vss PBulkLine NBulkLine) inverter
xinv_4 (a_4 a_5 vdd vss PBulkLine NBulkLine) inverter
xinv_5 (a_5 a_6 vdd vss PBulkLine NBulkLine) inverter
xinv_6 (a_6 a_7 vdd vss PBulkLine NBulkLine) inverter
xinv_7 (a_7 a_8 vdd vss PBulkLine NBulkLine) inverter
xinv_8 (a_8 a_9 vdd vss PBulkLine NBulkLine) inverter
xinv_9 (a_9 a_10 vdd vss PBulkLine NBulkLine) inverter
xinv_10 (a_10 a_11 vdd vss PBulkLine NBulkLine) inverter
xinv_11 (a_11 a_12 vdd vss PBulkLine NBulkLine) inverter
xinv_12 (a_12 a_13 vdd vss PBulkLine NBulkLine) inverter
xinv_13 (a_13 a_14 vdd vss PBulkLine NBulkLine) inverter
xinv_14 (a_14 a_15 vdd vss PBulkLine NBulkLine) inverter
xinv_15 (a_15 a_16 vdd vss PBulkLine NBulkLine) inverter
xinv_16 (a_16 a_17 vdd vss PBulkLine NBulkLine) inverter
xinv_17 (a_17 a_18 vdd vss PBulkLine NBulkLine) inverter
xinv_18 (a_18 a_19 vdd vss PBulkLine NBulkLine) inverter
xinv_19 (a_19 a_20 vdd vss PBulkLine NBulkLine) inverter
xinv_20 (a_20 a_21 vdd vss PBulkLine NBulkLine) inverter
xinv_21 (a_21 a_22 vdd vss PBulkLine NBulkLine) inverter
xinv_22 (a_22 a_23 vdd vss PBulkLine NBulkLine) inverter
xinv_23 (a_23 a_24 vdd vss PBulkLine NBulkLine) inverter
xinv_24 (a_24 a_25 vdd vss PBulkLine NBulkLine) inverter
xinv_25 (a_25 a_26 vdd vss PBulkLine NBulkLine) inverter
xinv_26 (a_26 a_27 vdd vss PBulkLine NBulkLine) inverter
xinv_27 (a_27 a_28 vdd vss PBulkLine NBulkLine) inverter
xinv_28 (a_28 a_29 vdd vss PBulkLine NBulkLine) inverter
xinv_29 (a_29 a_30 vdd vss PBulkLine NBulkLine) inverter
xinv_30 (a_30 a_31 vdd vss PBulkLine NBulkLine) inverter
xinv_31 (a_31 a_32 vdd vss PBulkLine NBulkLine) inverter
xinv_32 (a_32 a_33 vdd vss PBulkLine NBulkLine) inverter
xinv_33 (a_33 a_34 vdd vss PBulkLine NBulkLine) inverter
xinv_34 (a_34 a_35 vdd vss PBulkLine NBulkLine) inverter
xinv_35 (a_35 a_36 vdd vss PBulkLine NBulkLine) inverter
xinv_36 (a_36 a_37 vdd vss PBulkLine NBulkLine) inverter
xinv_37 (a_37 a_38 vdd vss PBulkLine NBulkLine) inverter
xinv_38 (a_38 a_39 vdd vss PBulkLine NBulkLine) inverter
xinv_39 (a_39 a_40 vdd vss PBulkLine NBulkLine) inverter
xinv_40 (a_40 a_41 vdd vss PBulkLine NBulkLine) inverter
xinv_41 (a_41 a_42 vdd vss PBulkLine NBulkLine) inverter
xinv_42 (a_42 a_43 vdd vss PBulkLine NBulkLine) inverter
xinv_43 (a_43 a_44 vdd vss PBulkLine NBulkLine) inverter

ends delay


subckt delaytwentythree (a_0 a_46 vss PBulkLine NBulkLine)

xinv_0 (a_0 a_1 vdd vss PBulkLine NBulkLine) inverter
xinv_1 (a_1 a_2 vdd vss PBulkLine NBulkLine) inverter