
simulator lang=spectre

include "localblock.sp"
include "senseamplifier.scs"

subckt globalblock (vdd vss NBulkLine PBulkLine
+LWLencoded_0_0 LWLencoded_0_1 LWLencoded_0_2 LWLencoded_0_3 LWLencoded_0_4 LWLencoded_0_5 LWLencoded_0_6 LWLencoded_1_0 LWLencoded_1_1 LWLencoded_1_2 LWLencoded_1_3 LWLencoded_1_4 LWLencoded_1_5 LWLencoded_1_6
+LBLencoded_0_0 LBLencoded_0_1 LBLencoded_0_2 LBLencoded_0_3 LBLencoded_0_4 LBLencoded_1_0 LBLencoded_1_1 LBLencoded_1_2 LBLencoded_1_3 LBLencoded_1_4
+SelLB_0 SelLB_1 Refenable_0 Refenable_1
+InOut InOutbar SA_SH EnableSAP EnableSAN Delay)
parameters Rcell_0_0_0 Rcell_0_0_1 Rcell_0_0_2 Rcell_0_0_3 Rcell_0_0_4 Rcell_0_0_5 Rcell_0_0_6 Rcell_0_0_7 Rcell_0_0_8 Rcell_0_0_9 Rcell_0_0_10 Rcell_0_0_11 Rcell_0_0_12 Rcell_0_0_13 Rcell_0_0_14 Rcell_0_0_15 Rcell_0_0_16 Rcell_0_0_17 Rcell_0_0_18 Rcell_0_0_19 Rcell_0_0_20 Rcell_0_0_21 Rcell_0_0_22 Rcell_0_0_23 Rcell_0_0_24 Rcell_0_0_25 Rcell_0_0_26 Rcell_0_0_27 Rcell_0_0_28 Rcell_0_0_29 Rcell_0_0_30 Rcell_0_0_31 Rcell_0_0_32 Rcell_0_0_33 Rcell_0_0_34 Rcell_0_0_35 Rcell_0_0_36 Rcell_0_0_37 Rcell_0_0_38 Rcell_0_0_39 Rcell_0_0_40 Rcell_0_0_41 Rcell_0_0_42 Rcell_0_0_43 Rcell_0_0_44 Rcell_0_0_45 Rcell_0_0_46 Rcell_0_0_47 Rcell_0_0_48 Rcell_0_0_49 Rcell_0_0_50 Rcell_0_0_51 Rcell_0_0_52 Rcell_0_0_53 Rcell_0_0_54 Rcell_0_0_55 Rcell_0_0_56 Rcell_0_0_57 Rcell_0_0_58 Rcell_0_0_59 Rcell_0_0_60 Rcell_0_0_61 Rcell_0_0_62 Rcell_0_0_63 Rcell_0_0_64 Rcell_0_0_65 Rcell_0_0_66 Rcell_0_0_67 Rcell_0_0_68 Rcell_0_0_69 Rcell_0_0_70 Rcell_0_0_71 Rcell_0_0_72 Rcell_0_0_73 Rcell_0_0_74 Rcell_0_0_75 Rcell_0_0_76 Rcell_0_0_77 Rcell_0_0_78 Rcell_0_0_79 Rcell_0_0_80 Rcell_0_0_81 Rcell_0_0_82 Rcell_0_0_83 Rcell_0_0_84 Rcell_0_0_85 Rcell_0_0_86 Rcell_0_0_87 Rcell_0_0_88 Rcell_0_0_89 Rcell_0_0_90 Rcell_0_0_91 Rcell_0_0_92 Rcell_0_0_93 Rcell_0_0_94 Rcell_0_0_95 Rcell_0_0_96 Rcell_0_0_97 Rcell_0_0_98 Rcell_0_0_99 Rcell_0_0_100 Rcell_0_0_101 Rcell_0_0_102 Rcell_0_0_103 Rcell_0_0_104 Rcell_0_0_105 Rcell_0_0_106 Rcell_0_0_107 Rcell_0_0_108 Rcell_0_0_109 Rcell_0_0_110 Rcell_0_0_111 Rcell_0_0_112 Rcell_0_0_113 Rcell_0_0_114 Rcell_0_0_115 Rcell_0_0_116 Rcell_0_0_117 Rcell_0_0_118 Rcell_0_0_119 Rcell_0_0_120 Rcell_0_0_121 Rcell_0_0_122 Rcell_0_0_123 Rcell_0_0_124 Rcell_0_0_125 Rcell_0_0_126 Rcell_0_0_127 Rcell_0_1_0 Rcell_0_1_1 Rcell_0_1_2 Rcell_0_1_3 Rcell_0_1_4 Rcell_0_1_5 Rcell_0_1_6 Rcell_0_1_7 Rcell_0_1_8 Rcell_0_1_9 Rcell_0_1_10 Rcell_0_1_11 Rcell_0_1_12 Rcell_0_1_13 Rcell_0_1_14 Rcell_0_1_15 Rcell_0_1_16 Rcell_0_1_17 Rcell_0_1_18 Rcell_0_1_19 Rcell_0_1_20 Rcell_0_1_21 Rcell_0_1_22 Rcell_0_1_23 Rcell_0_1_24 Rcell_0_1_25 Rcell_0_1_26 Rcell_0_1_27 Rcell_0_1_28 Rcell_0_1_29 Rcell_0_1_30 Rcell_0_1_31 Rcell_0_1_32 Rcell_0_1_33 Rcell_0_1_34 Rcell_0_1_35 Rcell_0_1_36 Rcell_0_1_37 Rcell_0_1_38 Rcell_0_1_39 Rcell_0_1_40 Rcell_0_1_41 Rcell_0_1_42 Rcell_0_1_43 Rcell_0_1_44 Rcell_0_1_45 Rcell_0_1_46 Rcell_0_1_47 Rcell_0_1_48 Rcell_0_1_49 Rcell_0_1_50 Rcell_0_1_51 Rcell_0_1_52 Rcell_0_1_53 Rcell_0_1_54 Rcell_0_1_55 Rcell_0_1_56 Rcell_0_1_57 Rcell_0_1_58 Rcell_0_1_59 Rcell_0_1_60 Rcell_0_1_61 Rcell_0_1_62 Rcell_0_1_63 Rcell_0_1_64 Rcell_0_1_65 Rcell_0_1_66 Rcell_0_1_67 Rcell_0_1_68 Rcell_0_1_69 Rcell_0_1_70 Rcell_0_1_71 Rcell_0_1_72 Rcell_0_1_73 Rcell_0_1_74 Rcell_0_1_75 Rcell_0_1_76 Rcell_0_1_77 Rcell_0_1_78 Rcell_0_1_79 Rcell_0_1_80 Rcell_0_1_81 Rcell_0_1_82 Rcell_0_1_83 Rcell_0_1_84 Rcell_0_1_85 Rcell_0_1_86 Rcell_0_1_87 Rcell_0_1_88 Rcell_0_1_89 Rcell_0_1_90 Rcell_0_1_91 Rcell_0_1_92 Rcell_0_1_93 Rcell_0_1_94 Rcell_0_1_95 Rcell_0_1_96 Rcell_0_1_97 Rcell_0_1_98 Rcell_0_1_99 Rcell_0_1_100 Rcell_0_1_101 Rcell_0_1_102 Rcell_0_1_103 Rcell_0_1_104 Rcell_0_1_105 Rcell_0_1_106 Rcell_0_1_107 Rcell_0_1_108 Rcell_0_1_109 Rcell_0_1_110 Rcell_0_1_111 Rcell_0_1_112 Rcell_0_1_113 Rcell_0_1_114 Rcell_0_1_115 Rcell_0_1_116 Rcell_0_1_117 Rcell_0_1_118 Rcell_0_1_119 Rcell_0_1_120 Rcell_0_1_121 Rcell_0_1_122 Rcell_0_1_123 Rcell_0_1_124 Rcell_0_1_125 Rcell_0_1_126 Rcell_0_1_127 Rcell_0_2_0 Rcell_0_2_1 Rcell_0_2_2 Rcell_0_2_3 Rcell_0_2_4 Rcell_0_2_5 Rcell_0_2_6 Rcell_0_2_7 Rcell_0_2_8 Rcell_0_2_9 Rcell_0_2_10 Rcell_0_2_11 Rcell_0_2_12 Rcell_0_2_13 Rcell_0_2_14 Rcell_0_2_15 Rcell_0_2_16 Rcell_0_2_17 Rcell_0_2_18 Rcell_0_2_19 Rcell_0_2_20 Rcell_0_2_21 Rcell_0_2_22 Rcell_0_2_23 Rcell_0_2_24 Rcell_0_2_25 Rcell_0_2_26 Rcell_0_2_27 Rcell_0_2_28 Rcell_0_2_29 Rcell_0_2_30 Rcell_0_2_31 Rcell_0_2_32 Rcell_0_2_33 Rcell_0_2_34 Rcell_0_2_35 Rcell_0_2_36 Rcell_0_2_37 Rcell_0_2_38 Rcell_0_2_39 Rcell_0_2_40 Rcell_0_2_41 Rcell_0_2_42 Rcell_0_2_43 Rcell_0_2_44 Rcell_0_2_45 Rcell_0_2_46 Rcell_0_2_47 Rcell_0_2_48 Rcell_0_2_49 Rcell_0_2_50 Rcell_0_2_51 Rcell_0_2_52 Rcell_0_2_53 Rcell_0_2_54 Rcell_0_2_55 Rcell_0_2_56 Rcell_0_2_57 Rcell_0_2_58 Rcell_0_2_59 Rcell_0_2_60 Rcell_0_2_61 Rcell_0_2_62 Rcell_0_2_63 Rcell_0_2_64 Rcell_0_2_65 Rcell_0_2_66 Rcell_0_2_67 Rcell_0_2_68 Rcell_0_2_69 Rcell_0_2_70 Rcell_0_2_71 Rcell_0_2_72 Rcell_0_2_73 Rcell_0_2_74 Rcell_0_2_75 Rcell_0_2_76 Rcell_0_2_77 Rcell_0_2_78 Rcell_0_2_79 Rcell_0_2_80 Rcell_0_2_81 Rcell_0_2_82 Rcell_0_2_83 Rcell_0_2_84 Rcell_0_2_85 Rcell_0_2_86 Rcell_0_2_87 Rcell_0_2_88 Rcell_0_2_89 Rcell_0_2_90 Rcell_0_2_91 Rcell_0_2_92 Rcell_0_2_93 Rcell_0_2_94 Rcell_0_2_95 Rcell_0_2_96 Rcell_0_2_97 Rcell_0_2_98 Rcell_0_2_99 Rcell_0_2_100 Rcell_0_2_101 Rcell_0_2_102 Rcell_0_2_103 Rcell_0_2_104 Rcell_0_2_105 Rcell_0_2_106 Rcell_0_2_107 Rcell_0_2_108 Rcell_0_2_109 Rcell_0_2_110 Rcell_0_2_111 Rcell_0_2_112 Rcell_0_2_113 Rcell_0_2_114 Rcell_0_2_115 Rcell_0_2_116 Rcell_0_2_117 Rcell_0_2_118 Rcell_0_2_119 Rcell_0_2_120 Rcell_0_2_121 Rcell_0_2_122 Rcell_0_2_123 Rcell_0_2_124 Rcell_0_2_125 Rcell_0_2_126 Rcell_0_2_127 Rcell_0_3_0 Rcell_0_3_1 Rcell_0_3_2 Rcell_0_3_3 Rcell_0_3_4 Rcell_0_3_5 Rcell_0_3_6 Rcell_0_3_7 Rcell_0_3_8 Rcell_0_3_9 Rcell_0_3_10 Rcell_0_3_11 Rcell_0_3_12 Rcell_0_3_13 Rcell_0_3_14 Rcell_0_3_15 Rcell_0_3_16 Rcell_0_3_17 Rcell_0_3_18 Rcell_0_3_19 Rcell_0_3_20 Rcell_0_3_21 Rcell_0_3_22 Rcell_0_3_23 Rcell_0_3_24 Rcell_0_3_25 Rcell_0_3_26 Rcell_0_3_27 Rcell_0_3_28 Rcell_0_3_29 Rcell_0_3_30 Rcell_0_3_31 Rcell_0_3_32 Rcell_0_3_33 Rcell_0_3_34 Rcell_0_3_35 Rcell_0_3_36 Rcell_0_3_37 Rcell_0_3_38 Rcell_0_3_39 Rcell_0_3_40 Rcell_0_3_41 Rcell_0_3_42 Rcell_0_3_43 Rcell_0_3_44 Rcell_0_3_45 Rcell_0_3_46 Rcell_0_3_47 Rcell_0_3_48 Rcell_0_3_49 Rcell_0_3_50 Rcell_0_3_51 Rcell_0_3_52 Rcell_0_3_53 Rcell_0_3_54 Rcell_0_3_55 Rcell_0_3_56 Rcell_0_3_57 Rcell_0_3_58 Rcell_0_3_59 Rcell_0_3_60 Rcell_0_3_61 Rcell_0_3_62 Rcell_0_3_63 Rcell_0_3_64 Rcell_0_3_65 Rcell_0_3_66 Rcell_0_3_67 Rcell_0_3_68 Rcell_0_3_69 Rcell_0_3_70 Rcell_0_3_71 Rcell_0_3_72 Rcell_0_3_73 Rcell_0_3_74 Rcell_0_3_75 Rcell_0_3_76 Rcell_0_3_77 Rcell_0_3_78 Rcell_0_3_79 Rcell_0_3_80 Rcell_0_3_81 Rcell_0_3_82 Rcell_0_3_83 Rcell_0_3_84 Rcell_0_3_85 Rcell_0_3_86 Rcell_0_3_87 Rcell_0_3_88 Rcell_0_3_89 Rcell_0_3_90 Rcell_0_3_91 Rcell_0_3_92 Rcell_0_3_93 Rcell_0_3_94 Rcell_0_3_95 Rcell_0_3_96 Rcell_0_3_97 Rcell_0_3_98 Rcell_0_3_99 Rcell_0_3_100 Rcell_0_3_101 Rcell_0_3_102 Rcell_0_3_103 Rcell_0_3_104 Rcell_0_3_105 Rcell_0_3_106 Rcell_0_3_107 Rcell_0_3_108 Rcell_0_3_109 Rcell_0_3_110 Rcell_0_3_111 Rcell_0_3_112 Rcell_0_3_113 Rcell_0_3_114 Rcell_0_3_115 Rcell_0_3_116 Rcell_0_3_117 Rcell_0_3_118 Rcell_0_3_119 Rcell_0_3_120 Rcell_0_3_121 Rcell_0_3_122 Rcell_0_3_123 Rcell_0_3_124 Rcell_0_3_125 Rcell_0_3_126 Rcell_0_3_127 Rcell_0_4_0 Rcell_0_4_1 Rcell_0_4_2 Rcell_0_4_3 Rcell_0_4_4 Rcell_0_4_5 Rcell_0_4_6 Rcell_0_4_7 Rcell_0_4_8 Rcell_0_4_9 Rcell_0_4_10 Rcell_0_4_11 Rcell_0_4_12 Rcell_0_4_13 Rcell_0_4_14 Rcell_0_4_15 Rcell_0_4_16 Rcell_0_4_17 Rcell_0_4_18 Rcell_0_4_19 Rcell_0_4_20 Rcell_0_4_21 Rcell_0_4_22 Rcell_0_4_23 Rcell_0_4_24 Rcell_0_4_25 Rcell_0_4_26 Rcell_0_4_27 Rcell_0_4_28 Rcell_0_4_29 Rcell_0_4_30 Rcell_0_4_31 Rcell_0_4_32 Rcell_0_4_33 Rcell_0_4_34 Rcell_0_4_35 Rcell_0_4_36 Rcell_0_4_37 Rcell_0_4_38 Rcell_0_4_39 Rcell_0_4_40 Rcell_0_4_41 Rcell_0_4_42 Rcell_0_4_43 Rcell_0_4_44 Rcell_0_4_45 Rcell_0_4_46 Rcell_0_4_47 Rcell_0_4_48 Rcell_0_4_49 Rcell_0_4_50 Rcell_0_4_51 Rcell_0_4_52 Rcell_0_4_53 Rcell_0_4_54 Rcell_0_4_55 Rcell_0_4_56 Rcell_0_4_57 Rcell_0_4_58 Rcell_0_4_59 Rcell_0_4_60 Rcell_0_4_61 Rcell_0_4_62 Rcell_0_4_63 Rcell_0_4_64 Rcell_0_4_65 Rcell_0_4_66 Rcell_0_4_67 Rcell_0_4_68 Rcell_0_4_69 Rcell_0_4_70 Rcell_0_4_71 Rcell_0_4_72 Rcell_0_4_73 Rcell_0_4_74 Rcell_0_4_75 Rcell_0_4_76 Rcell_0_4_77 Rcell_0_4_78 Rcell_0_4_79 Rcell_0_4_80 Rcell_0_4_81 Rcell_0_4_82 Rcell_0_4_83 Rcell_0_4_84 Rcell_0_4_85 Rcell_0_4_86 Rcell_0_4_87 Rcell_0_4_88 Rcell_0_4_89 Rcell_0_4_90 Rcell_0_4_91 Rcell_0_4_92 Rcell_0_4_93 Rcell_0_4_94 Rcell_0_4_95 Rcell_0_4_96 Rcell_0_4_97 Rcell_0_4_98 Rcell_0_4_99 Rcell_0_4_100 Rcell_0_4_101 Rcell_0_4_102 Rcell_0_4_103 Rcell_0_4_104 Rcell_0_4_105 Rcell_0_4_106 Rcell_0_4_107 Rcell_0_4_108 Rcell_0_4_109 Rcell_0_4_110 Rcell_0_4_111 Rcell_0_4_112 Rcell_0_4_113 Rcell_0_4_114 Rcell_0_4_115 Rcell_0_4_116 Rcell_0_4_117 Rcell_0_4_118 Rcell_0_4_119 Rcell_0_4_120 Rcell_0_4_121 Rcell_0_4_122 Rcell_0_4_123 Rcell_0_4_124 Rcell_0_4_125 Rcell_0_4_126 Rcell_0_4_127 Rcell_0_5_0 Rcell_0_5_1 Rcell_0_5_2 Rcell_0_5_3 Rcell_0_5_4 Rcell_0_5_5 Rcell_0_5_6 Rcell_0_5_7 Rcell_0_5_8 Rcell_0_5_9 Rcell_0_5_10 Rcell_0_5_11 Rcell_0_5_12 Rcell_0_5_13 Rcell_0_5_14 Rcell_0_5_15 Rcell_0_5_16 Rcell_0_5_17 Rcell_0_5_18 Rcell_0_5_19 Rcell_0_5_20 Rcell_0_5_21 Rcell_0_5_22 Rcell_0_5_23 Rcell_0_5_24 Rcell_0_5_25 Rcell_0_5_26 Rcell_0_5_27 Rcell_0_5_28 Rcell_0_5_29 Rcell_0_5_30 Rcell_0_5_31 Rcell_0_5_32 Rcell_0_5_33 Rcell_0_5_34 Rcell_0_5_35 Rcell_0_5_36 Rcell_0_5_37 Rcell_0_5_38 Rcell_0_5_39 Rcell_0_5_40 Rcell_0_5_41 Rcell_0_5_42 Rcell_0_5_43 Rcell_0_5_44 Rcell_0_5_45 Rcell_0_5_46 Rcell_0_5_47 Rcell_0_5_48 Rcell_0_5_49 Rcell_0_5_50 Rcell_0_5_51 Rcell_0_5_52 Rcell_0_5_53 Rcell_0_5_54 Rcell_0_5_55 Rcell_0_5_56 Rcell_0_5_57 Rcell_0_5_58 Rcell_0_5_59 Rcell_0_5_60 Rcell_0_5_61 Rcell_0_5_62 Rcell_0_5_63 Rcell_0_5_64 Rcell_0_5_65 Rcell_0_5_66 Rcell_0_5_67 Rcell_0_5_68 Rcell_0_5_69 Rcell_0_5_70 Rcell_0_5_71 Rcell_0_5_72 Rcell_0_5_73 Rcell_0_5_74 Rcell_0_5_75 Rcell_0_5_76 Rcell_0_5_77 Rcell_0_5_78 Rcell_0_5_79 Rcell_0_5_80 Rcell_0_5_81 Rcell_0_5_82 Rcell_0_5_83 Rcell_0_5_84 Rcell_0_5_85 Rcell_0_5_86 Rcell_0_5_87 Rcell_0_5_88 Rcell_0_5_89 Rcell_0_5_90 Rcell_0_5_91 Rcell_0_5_92 Rcell_0_5_93 Rcell_0_5_94 Rcell_0_5_95 Rcell_0_5_96 Rcell_0_5_97 Rcell_0_5_98 Rcell_0_5_99 Rcell_0_5_100 Rcell_0_5_101 Rcell_0_5_102 Rcell_0_5_103 Rcell_0_5_104 Rcell_0_5_105 Rcell_0_5_106 Rcell_0_5_107 Rcell_0_5_108 Rcell_0_5_109 Rcell_0_5_110 Rcell_0_5_111 Rcell_0_5_112 Rcell_0_5_113 Rcell_0_5_114 Rcell_0_5_115 Rcell_0_5_116 Rcell_0_5_117 Rcell_0_5_118 Rcell_0_5_119 Rcell_0_5_120 Rcell_0_5_121 Rcell_0_5_122 Rcell_0_5_123 Rcell_0_5_124 Rcell_0_5_125 Rcell_0_5_126 Rcell_0_5_127 Rcell_0_6_0 Rcell_0_6_1 Rcell_0_6_2 Rcell_0_6_3 Rcell_0_6_4 Rcell_0_6_5 Rcell_0_6_6 Rcell_0_6_7 Rcell_0_6_8 Rcell_0_6_9 Rcell_0_6_10 Rcell_0_6_11 Rcell_0_6_12 Rcell_0_6_13 Rcell_0_6_14 Rcell_0_6_15 Rcell_0_6_16 Rcell_0_6_17 Rcell_0_6_18 Rcell_0_6_19 Rcell_0_6_20 Rcell_0_6_21 Rcell_0_6_22 Rcell_0_6_23 Rcell_0_6_24 Rcell_0_6_25 Rcell_0_6_26 Rcell_0_6_27 Rcell_0_6_28 Rcell_0_6_29 Rcell_0_6_30 Rcell_0_6_31 Rcell_0_6_32 Rcell_0_6_33 Rcell_0_6_34 Rcell_0_6_35 Rcell_0_6_36 Rcell_0_6_37 Rcell_0_6_38 Rcell_0_6_39 Rcell_0_6_40 Rcell_0_6_41 Rcell_0_6_42 Rcell_0_6_43 Rcell_0_6_44 Rcell_0_6_45 Rcell_0_6_46 Rcell_0_6_47 Rcell_0_6_48 Rcell_0_6_49 Rcell_0_6_50 Rcell_0_6_51 Rcell_0_6_52 Rcell_0_6_53 Rcell_0_6_54 Rcell_0_6_55 Rcell_0_6_56 Rcell_0_6_57 Rcell_0_6_58 Rcell_0_6_59 Rcell_0_6_60 Rcell_0_6_61 Rcell_0_6_62 Rcell_0_6_63 Rcell_0_6_64 Rcell_0_6_65 Rcell_0_6_66 Rcell_0_6_67 Rcell_0_6_68 Rcell_0_6_69 Rcell_0_6_70 Rcell_0_6_71 Rcell_0_6_72 Rcell_0_6_73 Rcell_0_6_74 Rcell_0_6_75 Rcell_0_6_76 Rcell_0_6_77 Rcell_0_6_78 Rcell_0_6_79 Rcell_0_6_80 Rcell_0_6_81 Rcell_0_6_82 Rcell_0_6_83 Rcell_0_6_84 Rcell_0_6_85 Rcell_0_6_86 Rcell_0_6_87 Rcell_0_6_88 Rcell_0_6_89 Rcell_0_6_90 Rcell_0_6_91 Rcell_0_6_92 Rcell_0_6_93 Rcell_0_6_94 Rcell_0_6_95 Rcell_0_6_96 Rcell_0_6_97 Rcell_0_6_98 Rcell_0_6_99 Rcell_0_6_100 Rcell_0_6_101 Rcell_0_6_102 Rcell_0_6_103 Rcell_0_6_104 Rcell_0_6_105 Rcell_0_6_106 Rcell_0_6_107 Rcell_0_6_108 Rcell_0_6_109 Rcell_0_6_110 Rcell_0_6_111 Rcell_0_6_112 Rcell_0_6_113 Rcell_0_6_114 Rcell_0_6_115 Rcell_0_6_116 Rcell_0_6_117 Rcell_0_6_118 Rcell_0_6_119 Rcell_0_6_120 Rcell_0_6_121 Rcell_0_6_122 Rcell_0_6_123 Rcell_0_6_124 Rcell_0_6_125 Rcell_0_6_126 Rcell_0_6_127 Rcell_0_7_0 Rcell_0_7_1 Rcell_0_7_2 Rcell_0_7_3 Rcell_0_7_4 Rcell_0_7_5 Rcell_0_7_6 Rcell_0_7_7 Rcell_0_7_8 Rcell_0_7_9 Rcell_0_7_10 Rcell_0_7_11 Rcell_0_7_12 Rcell_0_7_13 Rcell_0_7_14 Rcell_0_7_15 Rcell_0_7_16 Rcell_0_7_17 Rcell_0_7_18 Rcell_0_7_19 Rcell_0_7_20 Rcell_0_7_21 Rcell_0_7_22 Rcell_0_7_23 Rcell_0_7_24 Rcell_0_7_25 Rcell_0_7_26 Rcell_0_7_27 Rcell_0_7_28 Rcell_0_7_29 Rcell_0_7_30 Rcell_0_7_31 Rcell_0_7_32 Rcell_0_7_33 Rcell_0_7_34 Rcell_0_7_35 Rcell_0_7_36 Rcell_0_7_37 Rcell_0_7_38 Rcell_0_7_39 Rcell_0_7_40 Rcell_0_7_41 Rcell_0_7_42 Rcell_0_7_43 Rcell_0_7_44 Rcell_0_7_45 Rcell_0_7_46 Rcell_0_7_47 Rcell_0_7_48 Rcell_0_7_49 Rcell_0_7_50 Rcell_0_7_51 Rcell_0_7_52 Rcell_0_7_53 Rcell_0_7_54 Rcell_0_7_55 Rcell_0_7_56 Rcell_0_7_57 Rcell_0_7_58 Rcell_0_7_59 Rcell_0_7_60 Rcell_0_7_61 Rcell_0_7_62 Rcell_0_7_63 Rcell_0_7_64 Rcell_0_7_65 Rcell_0_7_66 Rcell_0_7_67 Rcell_0_7_68 Rcell_0_7_69 Rcell_0_7_70 Rcell_0_7_71 Rcell_0_7_72 Rcell_0_7_73 Rcell_0_7_74 Rcell_0_7_75 Rcell_0_7_76 Rcell_0_7_77 Rcell_0_7_78 Rcell_0_7_79 Rcell_0_7_80 Rcell_0_7_81 Rcell_0_7_82 Rcell_0_7_83 Rcell_0_7_84 Rcell_0_7_85 Rcell_0_7_86 Rcell_0_7_87 Rcell_0_7_88 Rcell_0_7_89 Rcell_0_7_90 Rcell_0_7_91 Rcell_0_7_92 Rcell_0_7_93 Rcell_0_7_94 Rcell_0_7_95 Rcell_0_7_96 Rcell_0_7_97 Rcell_0_7_98 Rcell_0_7_99 Rcell_0_7_100 Rcell_0_7_101 Rcell_0_7_102 Rcell_0_7_103 Rcell_0_7_104 Rcell_0_7_105 Rcell_0_7_106 Rcell_0_7_107 Rcell_0_7_108 Rcell_0_7_109 Rcell_0_7_110 Rcell_0_7_111 Rcell_0_7_112 Rcell_0_7_113 Rcell_0_7_114 Rcell_0_7_115 Rcell_0_7_116 Rcell_0_7_117 Rcell_0_7_118 Rcell_0_7_119 Rcell_0_7_120 Rcell_0_7_121 Rcell_0_7_122 Rcell_0_7_123 Rcell_0_7_124 Rcell_0_7_125 Rcell_0_7_126 Rcell_0_7_127 Rcell_0_8_0 Rcell_0_8_1 Rcell_0_8_2 Rcell_0_8_3 Rcell_0_8_4 Rcell_0_8_5 Rcell_0_8_6 Rcell_0_8_7 Rcell_0_8_8 Rcell_0_8_9 Rcell_0_8_10 Rcell_0_8_11 Rcell_0_8_12 Rcell_0_8_13 Rcell_0_8_14 Rcell_0_8_15 Rcell_0_8_16 Rcell_0_8_17 Rcell_0_8_18 Rcell_0_8_19 Rcell_0_8_20 Rcell_0_8_21 Rcell_0_8_22 Rcell_0_8_23 Rcell_0_8_24 Rcell_0_8_25 Rcell_0_8_26 Rcell_0_8_27 Rcell_0_8_28 Rcell_0_8_29 Rcell_0_8_30 Rcell_0_8_31 Rcell_0_8_32 Rcell_0_8_33 Rcell_0_8_34 Rcell_0_8_35 Rcell_0_8_36 Rcell_0_8_37 Rcell_0_8_38 Rcell_0_8_39 Rcell_0_8_40 Rcell_0_8_41 Rcell_0_8_42 Rcell_0_8_43 Rcell_0_8_44 Rcell_0_8_45 Rcell_0_8_46 Rcell_0_8_47 Rcell_0_8_48 Rcell_0_8_49 Rcell_0_8_50 Rcell_0_8_51 Rcell_0_8_52 Rcell_0_8_53 Rcell_0_8_54 Rcell_0_8_55 Rcell_0_8_56 Rcell_0_8_57 Rcell_0_8_58 Rcell_0_8_59 Rcell_0_8_60 Rcell_0_8_61 Rcell_0_8_62 Rcell_0_8_63 Rcell_0_8_64 Rcell_0_8_65 Rcell_0_8_66 Rcell_0_8_67 Rcell_0_8_68 Rcell_0_8_69 Rcell_0_8_70 Rcell_0_8_71 Rcell_0_8_72 Rcell_0_8_73 Rcell_0_8_74 Rcell_0_8_75 Rcell_0_8_76 Rcell_0_8_77 Rcell_0_8_78 Rcell_0_8_79 Rcell_0_8_80 Rcell_0_8_81 Rcell_0_8_82 Rcell_0_8_83 Rcell_0_8_84 Rcell_0_8_85 Rcell_0_8_86 Rcell_0_8_87 Rcell_0_8_88 Rcell_0_8_89 Rcell_0_8_90 Rcell_0_8_91 Rcell_0_8_92 Rcell_0_8_93 Rcell_0_8_94 Rcell_0_8_95 Rcell_0_8_96 Rcell_0_8_97 Rcell_0_8_98 Rcell_0_8_99 Rcell_0_8_100 Rcell_0_8_101 Rcell_0_8_102 Rcell_0_8_103 Rcell_0_8_104 Rcell_0_8_105 Rcell_0_8_106 Rcell_0_8_107 Rcell_0_8_108 Rcell_0_8_109 Rcell_0_8_110 Rcell_0_8_111 Rcell_0_8_112 Rcell_0_8_113 Rcell_0_8_114 Rcell_0_8_115 Rcell_0_8_116 Rcell_0_8_117 Rcell_0_8_118 Rcell_0_8_119 Rcell_0_8_120 Rcell_0_8_121 Rcell_0_8_122 Rcell_0_8_123 Rcell_0_8_124 Rcell_0_8_125 Rcell_0_8_126 Rcell_0_8_127 Rcell_0_9_0 Rcell_0_9_1 Rcell_0_9_2 Rcell_0_9_3 Rcell_0_9_4 Rcell_0_9_5 Rcell_0_9_6 Rcell_0_9_7 Rcell_0_9_8 Rcell_0_9_9 Rcell_0_9_10 Rcell_0_9_11 Rcell_0_9_12 Rcell_0_9_13 Rcell_0_9_14 Rcell_0_9_15 Rcell_0_9_16 Rcell_0_9_17 Rcell_0_9_18 Rcell_0_9_19 Rcell_0_9_20 Rcell_0_9_21 Rcell_0_9_22 Rcell_0_9_23 Rcell_0_9_24 Rcell_0_9_25 Rcell_0_9_26 Rcell_0_9_27 Rcell_0_9_28 Rcell_0_9_29 Rcell_0_9_30 Rcell_0_9_31 Rcell_0_9_32 Rcell_0_9_33 Rcell_0_9_34 Rcell_0_9_35 Rcell_0_9_36 Rcell_0_9_37 Rcell_0_9_38 Rcell_0_9_39 Rcell_0_9_40 Rcell_0_9_41 Rcell_0_9_42 Rcell_0_9_43 Rcell_0_9_44 Rcell_0_9_45 Rcell_0_9_46 Rcell_0_9_47 Rcell_0_9_48 Rcell_0_9_49 Rcell_0_9_50 Rcell_0_9_51 Rcell_0_9_52 Rcell_0_9_53 Rcell_0_9_54 Rcell_0_9_55 Rcell_0_9_56 Rcell_0_9_57 Rcell_0_9_58 Rcell_0_9_59 Rcell_0_9_60 Rcell_0_9_61 Rcell_0_9_62 Rcell_0_9_63 Rcell_0_9_64 Rcell_0_9_65 Rcell_0_9_66 Rcell_0_9_67 Rcell_0_9_68 Rcell_0_9_69 Rcell_0_9_70 Rcell_0_9_71 Rcell_0_9_72 Rcell_0_9_73 Rcell_0_9_74 Rcell_0_9_75 Rcell_0_9_76 Rcell_0_9_77 Rcell_0_9_78 Rcell_0_9_79 Rcell_0_9_80 Rcell_0_9_81 Rcell_0_9_82 Rcell_0_9_83 Rcell_0_9_84 Rcell_0_9_85 Rcell_0_9_86 Rcell_0_9_87 Rcell_0_9_88 Rcell_0_9_89 Rcell_0_9_90 Rcell_0_9_91 Rcell_0_9_92 Rcell_0_9_93 Rcell_0_9_94 Rcell_0_9_95 Rcell_0_9_96 Rcell_0_9_97 Rcell_0_9_98 Rcell_0_9_99 Rcell_0_9_100 Rcell_0_9_101 Rcell_0_9_102 Rcell_0_9_103 Rcell_0_9_104 Rcell_0_9_105 Rcell_0_9_106 Rcell_0_9_107 Rcell_0_9_108 Rcell_0_9_109 Rcell_0_9_110 Rcell_0_9_111 Rcell_0_9_112 Rcell_0_9_113 Rcell_0_9_114 Rcell_0_9_115 Rcell_0_9_116 Rcell_0_9_117 Rcell_0_9_118 Rcell_0_9_119 Rcell_0_9_120 Rcell_0_9_121 Rcell_0_9_122 Rcell_0_9_123 Rcell_0_9_124 Rcell_0_9_125 Rcell_0_9_126 Rcell_0_9_127 Rcell_0_10_0 Rcell_0_10_1 Rcell_0_10_2 Rcell_0_10_3 Rcell_0_10_4 Rcell_0_10_5 Rcell_0_10_6 Rcell_0_10_7 Rcell_0_10_8 Rcell_0_10_9 Rcell_0_10_10 Rcell_0_10_11 Rcell_0_10_12 Rcell_0_10_13 Rcell_0_10_14 Rcell_0_10_15 Rcell_0_10_16 Rcell_0_10_17 Rcell_0_10_18 Rcell_0_10_19 Rcell_0_10_20 Rcell_0_10_21 Rcell_0_10_22 Rcell_0_10_23 Rcell_0_10_24 Rcell_0_10_25 Rcell_0_10_26 Rcell_0_10_27 Rcell_0_10_28 Rcell_0_10_29 Rcell_0_10_30 Rcell_0_10_31 Rcell_0_10_32 Rcell_0_10_33 Rcell_0_10_34 Rcell_0_10_35 Rcell_0_10_36 Rcell_0_10_37 Rcell_0_10_38 Rcell_0_10_39 Rcell_0_10_40 Rcell_0_10_41 Rcell_0_10_42 Rcell_0_10_43 Rcell_0_10_44 Rcell_0_10_45 Rcell_0_10_46 Rcell_0_10_47 Rcell_0_10_48 Rcell_0_10_49 Rcell_0_10_50 Rcell_0_10_51 Rcell_0_10_52 Rcell_0_10_53 Rcell_0_10_54 Rcell_0_10_55 Rcell_0_10_56 Rcell_0_10_57 Rcell_0_10_58 Rcell_0_10_59 Rcell_0_10_60 Rcell_0_10_61 Rcell_0_10_62 Rcell_0_10_63 Rcell_0_10_64 Rcell_0_10_65 Rcell_0_10_66 Rcell_0_10_67 Rcell_0_10_68 Rcell_0_10_69 Rcell_0_10_70 Rcell_0_10_71 Rcell_0_10_72 Rcell_0_10_73 Rcell_0_10_74 Rcell_0_10_75 Rcell_0_10_76 Rcell_0_10_77 Rcell_0_10_78 Rcell_0_10_79 Rcell_0_10_80 Rcell_0_10_81 Rcell_0_10_82 Rcell_0_10_83 Rcell_0_10_84 Rcell_0_10_85 Rcell_0_10_86 Rcell_0_10_87 Rcell_0_10_88 Rcell_0_10_89 Rcell_0_10_90 Rcell_0_10_91 Rcell_0_10_92 Rcell_0_10_93 Rcell_0_10_94 Rcell_0_10_95 Rcell_0_10_96 Rcell_0_10_97 Rcell_0_10_98 Rcell_0_10_99 Rcell_0_10_100 Rcell_0_10_101 Rcell_0_10_102 Rcell_0_10_103 Rcell_0_10_104 Rcell_0_10_105 Rcell_0_10_106 Rcell_0_10_107 Rcell_0_10_108 Rcell_0_10_109 Rcell_0_10_110 Rcell_0_10_111 Rcell_0_10_112 Rcell_0_10_113 Rcell_0_10_114 Rcell_0_10_115 Rcell_0_10_116 Rcell_0_10_117 Rcell_0_10_118 Rcell_0_10_119 Rcell_0_10_120 Rcell_0_10_121 Rcell_0_10_122 Rcell_0_10_123 Rcell_0_10_124 Rcell_0_10_125 Rcell_0_10_126 Rcell_0_10_127 Rcell_0_11_0 Rcell_0_11_1 Rcell_0_11_2 Rcell_0_11_3 Rcell_0_11_4 Rcell_0_11_5 Rcell_0_11_6 Rcell_0_11_7 Rcell_0_11_8 Rcell_0_11_9 Rcell_0_11_10 Rcell_0_11_11 Rcell_0_11_12 Rcell_0_11_13 Rcell_0_11_14 Rcell_0_11_15 Rcell_0_11_16 Rcell_0_11_17 Rcell_0_11_18 Rcell_0_11_19 Rcell_0_11_20 Rcell_0_11_21 Rcell_0_11_22 Rcell_0_11_23 Rcell_0_11_24 Rcell_0_11_25 Rcell_0_11_26 Rcell_0_11_27 Rcell_0_11_28 Rcell_0_11_29 Rcell_0_11_30 Rcell_0_11_31 Rcell_0_11_32 Rcell_0_11_33 Rcell_0_11_34 Rcell_0_11_35 Rcell_0_11_36 Rcell_0_11_37 Rcell_0_11_38 Rcell_0_11_39 Rcell_0_11_40 Rcell_0_11_41 Rcell_0_11_42 Rcell_0_11_43 Rcell_0_11_44 Rcell_0_11_45 Rcell_0_11_46 Rcell_0_11_47 Rcell_0_11_48 Rcell_0_11_49 Rcell_0_11_50 Rcell_0_11_51 Rcell_0_11_52 Rcell_0_11_53 Rcell_0_11_54 Rcell_0_11_55 Rcell_0_11_56 Rcell_0_11_57 Rcell_0_11_58 Rcell_0_11_59 Rcell_0_11_60 Rcell_0_11_61 Rcell_0_11_62 Rcell_0_11_63 Rcell_0_11_64 Rcell_0_11_65 Rcell_0_11_66 Rcell_0_11_67 Rcell_0_11_68 Rcell_0_11_69 Rcell_0_11_70 Rcell_0_11_71 Rcell_0_11_72 Rcell_0_11_73 Rcell_0_11_74 Rcell_0_11_75 Rcell_0_11_76 Rcell_0_11_77 Rcell_0_11_78 Rcell_0_11_79 Rcell_0_11_80 Rcell_0_11_81 Rcell_0_11_82 Rcell_0_11_83 Rcell_0_11_84 Rcell_0_11_85 Rcell_0_11_86 Rcell_0_11_87 Rcell_0_11_88 Rcell_0_11_89 Rcell_0_11_90 Rcell_0_11_91 Rcell_0_11_92 Rcell_0_11_93 Rcell_0_11_94 Rcell_0_11_95 Rcell_0_11_96 Rcell_0_11_97 Rcell_0_11_98 Rcell_0_11_99 Rcell_0_11_100 Rcell_0_11_101 Rcell_0_11_102 Rcell_0_11_103 Rcell_0_11_104 Rcell_0_11_105 Rcell_0_11_106 Rcell_0_11_107 Rcell_0_11_108 Rcell_0_11_109 Rcell_0_11_110 Rcell_0_11_111 Rcell_0_11_112 Rcell_0_11_113 Rcell_0_11_114 Rcell_0_11_115 Rcell_0_11_116 Rcell_0_11_117 Rcell_0_11_118 Rcell_0_11_119 Rcell_0_11_120 Rcell_0_11_121 Rcell_0_11_122 Rcell_0_11_123 Rcell_0_11_124 Rcell_0_11_125 Rcell_0_11_126 Rcell_0_11_127 Rcell_0_12_0 Rcell_0_12_1 Rcell_0_12_2 Rcell_0_12_3 Rcell_0_12_4 Rcell_0_12_5 Rcell_0_12_6 Rcell_0_12_7 Rcell_0_12_8 Rcell_0_12_9 Rcell_0_12_10 Rcell_0_12_11 Rcell_0_12_12 Rcell_0_12_13 Rcell_0_12_14 Rcell_0_12_15 Rcell_0_12_16 Rcell_0_12_17 Rcell_0_12_18 Rcell_0_12_19 Rcell_0_12_20 Rcell_0_12_21 Rcell_0_12_22 Rcell_0_12_23 Rcell_0_12_24 Rcell_0_12_25 Rcell_0_12_26 Rcell_0_12_27 Rcell_0_12_28 Rcell_0_12_29 Rcell_0_12_30 Rcell_0_12_31 Rcell_0_12_32 Rcell_0_12_33 Rcell_0_12_34 Rcell_0_12_35 Rcell_0_12_36 Rcell_0_12_37 Rcell_0_12_38 Rcell_0_12_39 Rcell_0_12_40 Rcell_0_12_41 Rcell_0_12_42 Rcell_0_12_43 Rcell_0_12_44 Rcell_0_12_45 Rcell_0_12_46 Rcell_0_12_47 Rcell_0_12_48 Rcell_0_12_49 Rcell_0_12_50 Rcell_0_12_51 Rcell_0_12_52 Rcell_0_12_53 Rcell_0_12_54 Rcell_0_12_55 Rcell_0_12_56 Rcell_0_12_57 Rcell_0_12_58 Rcell_0_12_59 Rcell_0_12_60 Rcell_0_12_61 Rcell_0_12_62 Rcell_0_12_63 Rcell_0_12_64 Rcell_0_12_65 Rcell_0_12_66 Rcell_0_12_67 Rcell_0_12_68 Rcell_0_12_69 Rcell_0_12_70 Rcell_0_12_71 Rcell_0_12_72 Rcell_0_12_73 Rcell_0_12_74 Rcell_0_12_75 Rcell_0_12_76 Rcell_0_12_77 Rcell_0_12_78 Rcell_0_12_79 Rcell_0_12_80 Rcell_0_12_81 Rcell_0_12_82 Rcell_0_12_83 Rcell_0_12_84 Rcell_0_12_85 Rcell_0_12_86 Rcell_0_12_87 Rcell_0_12_88 Rcell_0_12_89 Rcell_0_12_90 Rcell_0_12_91 Rcell_0_12_92 Rcell_0_12_93 Rcell_0_12_94 Rcell_0_12_95 Rcell_0_12_96 Rcell_0_12_97 Rcell_0_12_98 Rcell_0_12_99 Rcell_0_12_100 Rcell_0_12_101 Rcell_0_12_102 Rcell_0_12_103 Rcell_0_12_104 Rcell_0_12_105 Rcell_0_12_106 Rcell_0_12_107 Rcell_0_12_108 Rcell_0_12_109 Rcell_0_12_110 Rcell_0_12_111 Rcell_0_12_112 Rcell_0_12_113 Rcell_0_12_114 Rcell_0_12_115 Rcell_0_12_116 Rcell_0_12_117 Rcell_0_12_118 Rcell_0_12_119 Rcell_0_12_120 Rcell_0_12_121 Rcell_0_12_122 Rcell_0_12_123 Rcell_0_12_124 Rcell_0_12_125 Rcell_0_12_126 Rcell_0_12_127 Rcell_0_13_0 Rcell_0_13_1 Rcell_0_13_2 Rcell_0_13_3 Rcell_0_13_4 Rcell_0_13_5 Rcell_0_13_6 Rcell_0_13_7 Rcell_0_13_8 Rcell_0_13_9 Rcell_0_13_10 Rcell_0_13_11 Rcell_0_13_12 Rcell_0_13_13 Rcell_0_13_14 Rcell_0_13_15 Rcell_0_13_16 Rcell_0_13_17 Rcell_0_13_18 Rcell_0_13_19 Rcell_0_13_20 Rcell_0_13_21 Rcell_0_13_22 Rcell_0_13_23 Rcell_0_13_24 Rcell_0_13_25 Rcell_0_13_26 Rcell_0_13_27 Rcell_0_13_28 Rcell_0_13_29 Rcell_0_13_30 Rcell_0_13_31 Rcell_0_13_32 Rcell_0_13_33 Rcell_0_13_34 Rcell_0_13_35 Rcell_0_13_36 Rcell_0_13_37 Rcell_0_13_38 Rcell_0_13_39 Rcell_0_13_40 Rcell_0_13_41 Rcell_0_13_42 Rcell_0_13_43 Rcell_0_13_44 Rcell_0_13_45 Rcell_0_13_46 Rcell_0_13_47 Rcell_0_13_48 Rcell_0_13_49 Rcell_0_13_50 Rcell_0_13_51 Rcell_0_13_52 Rcell_0_13_53 Rcell_0_13_54 Rcell_0_13_55 Rcell_0_13_56 Rcell_0_13_57 Rcell_0_13_58 Rcell_0_13_59 Rcell_0_13_60 Rcell_0_13_61 Rcell_0_13_62 Rcell_0_13_63 Rcell_0_13_64 Rcell_0_13_65 Rcell_0_13_66 Rcell_0_13_67 Rcell_0_13_68 Rcell_0_13_69 Rcell_0_13_70 Rcell_0_13_71 Rcell_0_13_72 Rcell_0_13_73 Rcell_0_13_74 Rcell_0_13_75 Rcell_0_13_76 Rcell_0_13_77 Rcell_0_13_78 Rcell_0_13_79 Rcell_0_13_80 Rcell_0_13_81 Rcell_0_13_82 Rcell_0_13_83 Rcell_0_13_84 Rcell_0_13_85 Rcell_0_13_86 Rcell_0_13_87 Rcell_0_13_88 Rcell_0_13_89 Rcell_0_13_90 Rcell_0_13_91 Rcell_0_13_92 Rcell_0_13_93 Rcell_0_13_94 Rcell_0_13_95 Rcell_0_13_96 Rcell_0_13_97 Rcell_0_13_98 Rcell_0_13_99 Rcell_0_13_100 Rcell_0_13_101 Rcell_0_13_102 Rcell_0_13_103 Rcell_0_13_104 Rcell_0_13_105 Rcell_0_13_106 Rcell_0_13_107 Rcell_0_13_108 Rcell_0_13_109 Rcell_0_13_110 Rcell_0_13_111 Rcell_0_13_112 Rcell_0_13_113 Rcell_0_13_114 Rcell_0_13_115 Rcell_0_13_116 Rcell_0_13_117 Rcell_0_13_118 Rcell_0_13_119 Rcell_0_13_120 Rcell_0_13_121 Rcell_0_13_122 Rcell_0_13_123 Rcell_0_13_124 Rcell_0_13_125 Rcell_0_13_126 Rcell_0_13_127 Rcell_0_14_0 Rcell_0_14_1 Rcell_0_14_2 Rcell_0_14_3 Rcell_0_14_4 Rcell_0_14_5 Rcell_0_14_6 Rcell_0_14_7 Rcell_0_14_8 Rcell_0_14_9 Rcell_0_14_10 Rcell_0_14_11 Rcell_0_14_12 Rcell_0_14_13 Rcell_0_14_14 Rcell_0_14_15 Rcell_0_14_16 Rcell_0_14_17 Rcell_0_14_18 Rcell_0_14_19 Rcell_0_14_20 Rcell_0_14_21 Rcell_0_14_22 Rcell_0_14_23 Rcell_0_14_24 Rcell_0_14_25 Rcell_0_14_26 Rcell_0_14_27 Rcell_0_14_28 Rcell_0_14_29 Rcell_0_14_30 Rcell_0_14_31 Rcell_0_14_32 Rcell_0_14_33 Rcell_0_14_34 Rcell_0_14_35 Rcell_0_14_36 Rcell_0_14_37 Rcell_0_14_38 Rcell_0_14_39 Rcell_0_14_40 Rcell_0_14_41 Rcell_0_14_42 Rcell_0_14_43 Rcell_0_14_44 Rcell_0_14_45 Rcell_0_14_46 Rcell_0_14_47 Rcell_0_14_48 Rcell_0_14_49 Rcell_0_14_50 Rcell_0_14_51 Rcell_0_14_52 Rcell_0_14_53 Rcell_0_14_54 Rcell_0_14_55 Rcell_0_14_56 Rcell_0_14_57 Rcell_0_14_58 Rcell_0_14_59 Rcell_0_14_60 Rcell_0_14_61 Rcell_0_14_62 Rcell_0_14_63 Rcell_0_14_64 Rcell_0_14_65 Rcell_0_14_66 Rcell_0_14_67 Rcell_0_14_68 Rcell_0_14_69 Rcell_0_14_70 Rcell_0_14_71 Rcell_0_14_72 Rcell_0_14_73 Rcell_0_14_74 Rcell_0_14_75 Rcell_0_14_76 Rcell_0_14_77 Rcell_0_14_78 Rcell_0_14_79 Rcell_0_14_80 Rcell_0_14_81 Rcell_0_14_82 Rcell_0_14_83 Rcell_0_14_84 Rcell_0_14_85 Rcell_0_14_86 Rcell_0_14_87 Rcell_0_14_88 Rcell_0_14_89 Rcell_0_14_90 Rcell_0_14_91 Rcell_0_14_92 Rcell_0_14_93 Rcell_0_14_94 Rcell_0_14_95 Rcell_0_14_96 Rcell_0_14_97 Rcell_0_14_98 Rcell_0_14_99 Rcell_0_14_100 Rcell_0_14_101 Rcell_0_14_102 Rcell_0_14_103 Rcell_0_14_104 Rcell_0_14_105 Rcell_0_14_106 Rcell_0_14_107 Rcell_0_14_108 Rcell_0_14_109 Rcell_0_14_110 Rcell_0_14_111 Rcell_0_14_112 Rcell_0_14_113 Rcell_0_14_114 Rcell_0_14_115 Rcell_0_14_116 Rcell_0_14_117 Rcell_0_14_118 Rcell_0_14_119 Rcell_0_14_120 Rcell_0_14_121 Rcell_0_14_122 Rcell_0_14_123 Rcell_0_14_124 Rcell_0_14_125 Rcell_0_14_126 Rcell_0_14_127 Rcell_0_15_0 Rcell_0_15_1 Rcell_0_15_2 Rcell_0_15_3 Rcell_0_15_4 Rcell_0_15_5 Rcell_0_15_6 Rcell_0_15_7 Rcell_0_15_8 Rcell_0_15_9 Rcell_0_15_10 Rcell_0_15_11 Rcell_0_15_12 Rcell_0_15_13 Rcell_0_15_14 Rcell_0_15_15 Rcell_0_15_16 Rcell_0_15_17 Rcell_0_15_18 Rcell_0_15_19 Rcell_0_15_20 Rcell_0_15_21 Rcell_0_15_22 Rcell_0_15_23 Rcell_0_15_24 Rcell_0_15_25 Rcell_0_15_26 Rcell_0_15_27 Rcell_0_15_28 Rcell_0_15_29 Rcell_0_15_30 Rcell_0_15_31 Rcell_0_15_32 Rcell_0_15_33 Rcell_0_15_34 Rcell_0_15_35 Rcell_0_15_36 Rcell_0_15_37 Rcell_0_15_38 Rcell_0_15_39 Rcell_0_15_40 Rcell_0_15_41 Rcell_0_15_42 Rcell_0_15_43 Rcell_0_15_44 Rcell_0_15_45 Rcell_0_15_46 Rcell_0_15_47 Rcell_0_15_48 Rcell_0_15_49 Rcell_0_15_50 Rcell_0_15_51 Rcell_0_15_52 Rcell_0_15_53 Rcell_0_15_54 Rcell_0_15_55 Rcell_0_15_56 Rcell_0_15_57 Rcell_0_15_58 Rcell_0_15_59 Rcell_0_15_60 Rcell_0_15_61 Rcell_0_15_62 Rcell_0_15_63 Rcell_0_15_64 Rcell_0_15_65 Rcell_0_15_66 Rcell_0_15_67 Rcell_0_15_68 Rcell_0_15_69 Rcell_0_15_70 Rcell_0_15_71 Rcell_0_15_72 Rcell_0_15_73 Rcell_0_15_74 Rcell_0_15_75 Rcell_0_15_76 Rcell_0_15_77 Rcell_0_15_78 Rcell_0_15_79 Rcell_0_15_80 Rcell_0_15_81 Rcell_0_15_82 Rcell_0_15_83 Rcell_0_15_84 Rcell_0_15_85 Rcell_0_15_86 Rcell_0_15_87 Rcell_0_15_88 Rcell_0_15_89 Rcell_0_15_90 Rcell_0_15_91 Rcell_0_15_92 Rcell_0_15_93 Rcell_0_15_94 Rcell_0_15_95 Rcell_0_15_96 Rcell_0_15_97 Rcell_0_15_98 Rcell_0_15_99 Rcell_0_15_100 Rcell_0_15_101 Rcell_0_15_102 Rcell_0_15_103 Rcell_0_15_104 Rcell_0_15_105 Rcell_0_15_106 Rcell_0_15_107 Rcell_0_15_108 Rcell_0_15_109 Rcell_0_15_110 Rcell_0_15_111 Rcell_0_15_112 Rcell_0_15_113 Rcell_0_15_114 Rcell_0_15_115 Rcell_0_15_116 Rcell_0_15_117 Rcell_0_15_118 Rcell_0_15_119 Rcell_0_15_120 Rcell_0_15_121 Rcell_0_15_122 Rcell_0_15_123 Rcell_0_15_124 Rcell_0_15_125 Rcell_0_15_126 Rcell_0_15_127 Rcell_0_16_0 Rcell_0_16_1 Rcell_0_16_2 Rcell_0_16_3 Rcell_0_16_4 Rcell_0_16_5 Rcell_0_16_6 Rcell_0_16_7 Rcell_0_16_8 Rcell_0_16_9 Rcell_0_16_10 Rcell_0_16_11 Rcell_0_16_12 Rcell_0_16_13 Rcell_0_16_14 Rcell_0_16_15 Rcell_0_16_16 Rcell_0_16_17 Rcell_0_16_18 Rcell_0_16_19 Rcell_0_16_20 Rcell_0_16_21 Rcell_0_16_22 Rcell_0_16_23 Rcell_0_16_24 Rcell_0_16_25 Rcell_0_16_26 Rcell_0_16_27 Rcell_0_16_28 Rcell_0_16_29 Rcell_0_16_30 Rcell_0_16_31 Rcell_0_16_32 Rcell_0_16_33 Rcell_0_16_34 Rcell_0_16_35 Rcell_0_16_36 Rcell_0_16_37 Rcell_0_16_38 Rcell_0_16_39 Rcell_0_16_40 Rcell_0_16_41 Rcell_0_16_42 Rcell_0_16_43 Rcell_0_16_44 Rcell_0_16_45 Rcell_0_16_46 Rcell_0_16_47 Rcell_0_16_48 Rcell_0_16_49 Rcell_0_16_50 Rcell_0_16_51 Rcell_0_16_52 Rcell_0_16_53 Rcell_0_16_54 Rcell_0_16_55 Rcell_0_16_56 Rcell_0_16_57 Rcell_0_16_58 Rcell_0_16_59 Rcell_0_16_60 Rcell_0_16_61 Rcell_0_16_62 Rcell_0_16_63 Rcell_0_16_64 Rcell_0_16_65 Rcell_0_16_66 Rcell_0_16_67 Rcell_0_16_68 Rcell_0_16_69 Rcell_0_16_70 Rcell_0_16_71 Rcell_0_16_72 Rcell_0_16_73 Rcell_0_16_74 Rcell_0_16_75 Rcell_0_16_76 Rcell_0_16_77 Rcell_0_16_78 Rcell_0_16_79 Rcell_0_16_80 Rcell_0_16_81 Rcell_0_16_82 Rcell_0_16_83 Rcell_0_16_84 Rcell_0_16_85 Rcell_0_16_86 Rcell_0_16_87 Rcell_0_16_88 Rcell_0_16_89 Rcell_0_16_90 Rcell_0_16_91 Rcell_0_16_92 Rcell_0_16_93 Rcell_0_16_94 Rcell_0_16_95 Rcell_0_16_96 Rcell_0_16_97 Rcell_0_16_98 Rcell_0_16_99 Rcell_0_16_100 Rcell_0_16_101 Rcell_0_16_102 Rcell_0_16_103 Rcell_0_16_104 Rcell_0_16_105 Rcell_0_16_106 Rcell_0_16_107 Rcell_0_16_108 Rcell_0_16_109 Rcell_0_16_110 Rcell_0_16_111 Rcell_0_16_112 Rcell_0_16_113 Rcell_0_16_114 Rcell_0_16_115 Rcell_0_16_116 Rcell_0_16_117 Rcell_0_16_118 Rcell_0_16_119 Rcell_0_16_120 Rcell_0_16_121 Rcell_0_16