simulator lang=spectre

include "branch.sp"
include "decoder.sp"

subckt localblock (vdd vss NBulkLine PBulkLine WLencoded_0 WLencoded_1 WLencoded_2 WLencoded_3 WLencoded_4 WLencoded_5 WLencoded_6 BLencoded_0 BLencoded_1 BLencoded_2 BLencoded_3 BLencoded_4 LBenable BLout Delay Refenable)
parameters Rcell_0_0 Rcell_0_1 Rcell_0_2 Rcell_0_3 Rcell_0_4 Rcell_0_5 Rcell_0_6 Rcell_0_7 Rcell_0_8 Rcell_0_9 Rcell_0_10 Rcell_0_11 Rcell_0_12 Rcell_0_13 Rcell_0_14 Rcell_0_15 Rcell_0_16 Rcell_0_17 Rcell_0_18 Rcell_0_19 Rcell_0_20 Rcell_0_21 Rcell_0_22 Rcell_0_23 Rcell_0_24 Rcell_0_25 Rcell_0_26 Rcell_0_27 Rcell_0_28 Rcell_0_29 Rcell_0_30 Rcell_0_31 Rcell_0_32 Rcell_0_33 Rcell_0_34 Rcell_0_35 Rcell_0_36 Rcell_0_37 Rcell_0_38 Rcell_0_39 Rcell_0_40 Rcell_0_41 Rcell_0_42 Rcell_0_43 Rcell_0_44 Rcell_0_45 Rcell_0_46 Rcell_0_47 Rcell_0_48 Rcell_0_49 Rcell_0_50 Rcell_0_51 Rcell_0_52 Rcell_0_53 Rcell_0_54 Rcell_0_55 Rcell_0_56 Rcell_0_57 Rcell_0_58 Rcell_0_59 Rcell_0_60 Rcell_0_61 Rcell_0_62 Rcell_0_63 Rcell_0_64 Rcell_0_65 Rcell_0_66 Rcell_0_67 Rcell_0_68 Rcell_0_69 Rcell_0_70 Rcell_0_71 Rcell_0_72 Rcell_0_73 Rcell_0_74 Rcell_0_75 Rcell_0_76 Rcell_0_77 Rcell_0_78 Rcell_0_79 Rcell_0_80 Rcell_0_81 Rcell_0_82 Rcell_0_83 Rcell_0_84 Rcell_0_85 Rcell_0_86 Rcell_0_87 Rcell_0_88 Rcell_0_89 Rcell_0_90 Rcell_0_91 Rcell_0_92 Rcell_0_93 Rcell_0_94 Rcell_0_95 Rcell_0_96 Rcell_0_97 Rcell_0_98 Rcell_0_99 Rcell_0_100 Rcell_0_101 Rcell_0_102 Rcell_0_103 Rcell_0_104 Rcell_0_105 Rcell_0_106 Rcell_0_107 Rcell_0_108 Rcell_0_109 Rcell_0_110 Rcell_0_111 Rcell_0_112 Rcell_0_113 Rcell_0_114 Rcell_0_115 Rcell_0_116 Rcell_0_117 Rcell_0_118 Rcell_0_119 Rcell_0_120 Rcell_0_121 Rcell_0_122 Rcell_0_123 Rcell_0_124 Rcell_0_125 Rcell_0_126 Rcell_0_127 Rcell_1_0 Rcell_1_1 Rcell_1_2 Rcell_1_3 Rcell_1_4 Rcell_1_5 Rcell_1_6 Rcell_1_7 Rcell_1_8 Rcell_1_9 Rcell_1_10 Rcell_1_11 Rcell_1_12 Rcell_1_13 Rcell_1_14 Rcell_1_15 Rcell_1_16 Rcell_1_17 Rcell_1_18 Rcell_1_19 Rcell_1_20 Rcell_1_21 Rcell_1_22 Rcell_1_23 Rcell_1_24 Rcell_1_25 Rcell_1_26 Rcell_1_27 Rcell_1_28 Rcell_1_29 Rcell_1_30 Rcell_1_31 Rcell_1_32 Rcell_1_33 Rcell_1_34 Rcell_1_35 Rcell_1_36 Rcell_1_37 Rcell_1_38 Rcell_1_39 Rcell_1_40 Rcell_1_41 Rcell_1_42 Rcell_1_43 Rcell_1_44 Rcell_1_45 Rcell_1_46 Rcell_1_47 Rcell_1_48 Rcell_1_49 Rcell_1_50 Rcell_1_51 Rcell_1_52 Rcell_1_53 Rcell_1_54 Rcell_1_55 Rcell_1_56 Rcell_1_57 Rcell_1_58 Rcell_1_59 Rcell_1_60 Rcell_1_61 Rcell_1_62 Rcell_1_63 Rcell_1_64 Rcell_1_65 Rcell_1_66 Rcell_1_67 Rcell_1_68 Rcell_1_69 Rcell_1_70 Rcell_1_71 Rcell_1_72 Rcell_1_73 Rcell_1_74 Rcell_1_75 Rcell_1_76 Rcell_1_77 Rcell_1_78 Rcell_1_79 Rcell_1_80 Rcell_1_81 Rcell_1_82 Rcell_1_83 Rcell_1_84 Rcell_1_85 Rcell_1_86 Rcell_1_87 Rcell_1_88 Rcell_1_89 Rcell_1_90 Rcell_1_91 Rcell_1_92 Rcell_1_93 Rcell_1_94 Rcell_1_95 Rcell_1_96 Rcell_1_97 Rcell_1_98 Rcell_1_99 Rcell_1_100 Rcell_1_101 Rcell_1_102 Rcell_1_103 Rcell_1_104 Rcell_1_105 Rcell_1_106 Rcell_1_107 Rcell_1_108 Rcell_1_109 Rcell_1_110 Rcell_1_111 Rcell_1_112 Rcell_1_113 Rcell_1_114 Rcell_1_115 Rcell_1_116 Rcell_1_117 Rcell_1_118 Rcell_1_119 Rcell_1_120 Rcell_1_121 Rcell_1_122 Rcell_1_123 Rcell_1_124 Rcell_1_125 Rcell_1_126 Rcell_1_127 Rcell_2_0 Rcell_2_1 Rcell_2_2 Rcell_2_3 Rcell_2_4 Rcell_2_5 Rcell_2_6 Rcell_2_7 Rcell_2_8 Rcell_2_9 Rcell_2_10 Rcell_2_11 Rcell_2_12 Rcell_2_13 Rcell_2_14 Rcell_2_15 Rcell_2_16 Rcell_2_17 Rcell_2_18 Rcell_2_19 Rcell_2_20 Rcell_2_21 Rcell_2_22 Rcell_2_23 Rcell_2_24 Rcell_2_25 Rcell_2_26 Rcell_2_27 Rcell_2_28 Rcell_2_29 Rcell_2_30 Rcell_2_31 Rcell_2_32 Rcell_2_33 Rcell_2_34 Rcell_2_35 Rcell_2_36 Rcell_2_37 Rcell_2_38 Rcell_2_39 Rcell_2_40 Rcell_2_41 Rcell_2_42 Rcell_2_43 Rcell_2_44 Rcell_2_45 Rcell_2_46 Rcell_2_47 Rcell_2_48 Rcell_2_49 Rcell_2_50 Rcell_2_51 Rcell_2_52 Rcell_2_53 Rcell_2_54 Rcell_2_55 Rcell_2_56 Rcell_2_57 Rcell_2_58 Rcell_2_59 Rcell_2_60 Rcell_2_61 Rcell_2_62 Rcell_2_63 Rcell_2_64 Rcell_2_65 Rcell_2_66 Rcell_2_67 Rcell_2_68 Rcell_2_69 Rcell_2_70 Rcell_2_71 Rcell_2_72 Rcell_2_73 Rcell_2_74 Rcell_2_75 Rcell_2_76 Rcell_2_77 Rcell_2_78 Rcell_2_79 Rcell_2_80 Rcell_2_81 Rcell_2_82 Rcell_2_83 Rcell_2_84 Rcell_2_85 Rcell_2_86 Rcell_2_87 Rcell_2_88 Rcell_2_89 Rcell_2_90 Rcell_2_91 Rcell_2_92 Rcell_2_93 Rcell_2_94 Rcell_2_95 Rcell_2_96 Rcell_2_97 Rcell_2_98 Rcell_2_99 Rcell_2_100 Rcell_2_101 Rcell_2_102 Rcell_2_103 Rcell_2_104 Rcell_2_105 Rcell_2_106 Rcell_2_107 Rcell_2_108 Rcell_2_109 Rcell_2_110 Rcell_2_111 Rcell_2_112 Rcell_2_113 Rcell_2_114 Rcell_2_115 Rcell_2_116 Rcell_2_117 Rcell_2_118 Rcell_2_119 Rcell_2_120 Rcell_2_121 Rcell_2_122 Rcell_2_123 Rcell_2_124 Rcell_2_125 Rcell_2_126 Rcell_2_127 Rcell_3_0 Rcell_3_1 Rcell_3_2 Rcell_3_3 Rcell_3_4 Rcell_3_5 Rcell_3_6 Rcell_3_7 Rcell_3_8 Rcell_3_9 Rcell_3_10 Rcell_3_11 Rcell_3_12 Rcell_3_13 Rcell_3_14 Rcell_3_15 Rcell_3_16 Rcell_3_17 Rcell_3_18 Rcell_3_19 Rcell_3_20 Rcell_3_21 Rcell_3_22 Rcell_3_23 Rcell_3_24 Rcell_3_25 Rcell_3_26 Rcell_3_27 Rcell_3_28 Rcell_3_29 Rcell_3_30 Rcell_3_31 Rcell_3_32 Rcell_3_33 Rcell_3_34 Rcell_3_35 Rcell_3_36 Rcell_3_37 Rcell_3_38 Rcell_3_39 Rcell_3_40 Rcell_3_41 Rcell_3_42 Rcell_3_43 Rcell_3_44 Rcell_3_45 Rcell_3_46 Rcell_3_47 Rcell_3_48 Rcell_3_49 Rcell_3_50 Rcell_3_51 Rcell_3_52 Rcell_3_53 Rcell_3_54 Rcell_3_55 Rcell_3_56 Rcell_3_57 Rcell_3_58 Rcell_3_59 Rcell_3_60 Rcell_3_61 Rcell_3_62 Rcell_3_63 Rcell_3_64 Rcell_3_65 Rcell_3_66 Rcell_3_67 Rcell_3_68 Rcell_3_69 Rcell_3_70 Rcell_3_71 Rcell_3_72 Rcell_3_73 Rcell_3_74 Rcell_3_75 Rcell_3_76 Rcell_3_77 Rcell_3_78 Rcell_3_79 Rcell_3_80 Rcell_3_81 Rcell_3_82 Rcell_3_83 Rcell_3_84 Rcell_3_85 Rcell_3_86 Rcell_3_87 Rcell_3_88 Rcell_3_89 Rcell_3_90 Rcell_3_91 Rcell_3_92 Rcell_3_93 Rcell_3_94 Rcell_3_95 Rcell_3_96 Rcell_3_97 Rcell_3_98 Rcell_3_99 Rcell_3_100 Rcell_3_101 Rcell_3_102 Rcell_3_103 Rcell_3_104 Rcell_3_105 Rcell_3_106 Rcell_3_107 Rcell_3_108 Rcell_3_109 Rcell_3_110 Rcell_3_111 Rcell_3_112 Rcell_3_113 Rcell_3_114 Rcell_3_115 Rcell_3_116 Rcell_3_117 Rcell_3_118 Rcell_3_119 Rcell_3_120 Rcell_3_121 Rcell_3_122 Rcell_3_123 Rcell_3_124 Rcell_3_125 Rcell_3_126 Rcell_3_127 Rcell_4_0 Rcell_4_1 Rcell_4_2 Rcell_4_3 Rcell_4_4 Rcell_4_5 Rcell_4_6 Rcell_4_7 Rcell_4_8 Rcell_4_9 Rcell_4_10 Rcell_4_11 Rcell_4_12 Rcell_4_13 Rcell_4_14 Rcell_4_15 Rcell_4_16 Rcell_4_17 Rcell_4_18 Rcell_4_19 Rcell_4_20 Rcell_4_21 Rcell_4_22 Rcell_4_23 Rcell_4_24 Rcell_4_25 Rcell_4_26 Rcell_4_27 Rcell_4_28 Rcell_4_29 Rcell_4_30 Rcell_4_31 Rcell_4_32 Rcell_4_33 Rcell_4_34 Rcell_4_35 Rcell_4_36 Rcell_4_37 Rcell_4_38 Rcell_4_39 Rcell_4_40 Rcell_4_41 Rcell_4_42 Rcell_4_43 Rcell_4_44 Rcell_4_45 Rcell_4_46 Rcell_4_47 Rcell_4_48 Rcell_4_49 Rcell_4_50 Rcell_4_51 Rcell_4_52 Rcell_4_53 Rcell_4_54 Rcell_4_55 Rcell_4_56 Rcell_4_57 Rcell_4_58 Rcell_4_59 Rcell_4_60 Rcell_4_61 Rcell_4_62 Rcell_4_63 Rcell_4_64 Rcell_4_65 Rcell_4_66 Rcell_4_67 Rcell_4_68 Rcell_4_69 Rcell_4_70 Rcell_4_71 Rcell_4_72 Rcell_4_73 Rcell_4_74 Rcell_4_75 Rcell_4_76 Rcell_4_77 Rcell_4_78 Rcell_4_79 Rcell_4_80 Rcell_4_81 Rcell_4_82 Rcell_4_83 Rcell_4_84 Rcell_4_85 Rcell_4_86 Rcell_4_87 Rcell_4_88 Rcell_4_89 Rcell_4_90 Rcell_4_91 Rcell_4_92 Rcell_4_93 Rcell_4_94 Rcell_4_95 Rcell_4_96 Rcell_4_97 Rcell_4_98 Rcell_4_99 Rcell_4_100 Rcell_4_101 Rcell_4_102 Rcell_4_103 Rcell_4_104 Rcell_4_105 Rcell_4_106 Rcell_4_107 Rcell_4_108 Rcell_4_109 Rcell_4_110 Rcell_4_111 Rcell_4_112 Rcell_4_113 Rcell_4_114 Rcell_4_115 Rcell_4_116 Rcell_4_117 Rcell_4_118 Rcell_4_119 Rcell_4_120 Rcell_4_121 Rcell_4_122 Rcell_4_123 Rcell_4_124 Rcell_4_125 Rcell_4_126 Rcell_4_127 Rcell_5_0 Rcell_5_1 Rcell_5_2 Rcell_5_3 Rcell_5_4 Rcell_5_5 Rcell_5_6 Rcell_5_7 Rcell_5_8 Rcell_5_9 Rcell_5_10 Rcell_5_11 Rcell_5_12 Rcell_5_13 Rcell_5_14 Rcell_5_15 Rcell_5_16 Rcell_5_17 Rcell_5_18 Rcell_5_19 Rcell_5_20 Rcell_5_21 Rcell_5_22 Rcell_5_23 Rcell_5_24 Rcell_5_25 Rcell_5_26 Rcell_5_27 Rcell_5_28 Rcell_5_29 Rcell_5_30 Rcell_5_31 Rcell_5_32 Rcell_5_33 Rcell_5_34 Rcell_5_35 Rcell_5_36 Rcell_5_37 Rcell_5_38 Rcell_5_39 Rcell_5_40 Rcell_5_41 Rcell_5_42 Rcell_5_43 Rcell_5_44 Rcell_5_45 Rcell_5_46 Rcell_5_47 Rcell_5_48 Rcell_5_49 Rcell_5_50 Rcell_5_51 Rcell_5_52 Rcell_5_53 Rcell_5_54 Rcell_5_55 Rcell_5_56 Rcell_5_57 Rcell_5_58 Rcell_5_59 Rcell_5_60 Rcell_5_61 Rcell_5_62 Rcell_5_63 Rcell_5_64 Rcell_5_65 Rcell_5_66 Rcell_5_67 Rcell_5_68 Rcell_5_69 Rcell_5_70 Rcell_5_71 Rcell_5_72 Rcell_5_73 Rcell_5_74 Rcell_5_75 Rcell_5_76 Rcell_5_77 Rcell_5_78 Rcell_5_79 Rcell_5_80 Rcell_5_81 Rcell_5_82 Rcell_5_83 Rcell_5_84 Rcell_5_85 Rcell_5_86 Rcell_5_87 Rcell_5_88 Rcell_5_89 Rcell_5_90 Rcell_5_91 Rcell_5_92 Rcell_5_93 Rcell_5_94 Rcell_5_95 Rcell_5_96 Rcell_5_97 Rcell_5_98 Rcell_5_99 Rcell_5_100 Rcell_5_101 Rcell_5_102 Rcell_5_103 Rcell_5_104 Rcell_5_105 Rcell_5_106 Rcell_5_107 Rcell_5_108 Rcell_5_109 Rcell_5_110 Rcell_5_111 Rcell_5_112 Rcell_5_113 Rcell_5_114 Rcell_5_115 Rcell_5_116 Rcell_5_117 Rcell_5_118 Rcell_5_119 Rcell_5_120 Rcell_5_121 Rcell_5_122 Rcell_5_123 Rcell_5_124 Rcell_5_125 Rcell_5_126 Rcell_5_127 Rcell_6_0 Rcell_6_1 Rcell_6_2 Rcell_6_3 Rcell_6_4 Rcell_6_5 Rcell_6_6 Rcell_6_7 Rcell_6_8 Rcell_6_9 Rcell_6_10 Rcell_6_11 Rcell_6_12 Rcell_6_13 Rcell_6_14 Rcell_6_15 Rcell_6_16 Rcell_6_17 Rcell_6_18 Rcell_6_19 Rcell_6_20 Rcell_6_21 Rcell_6_22 Rcell_6_23 Rcell_6_24 Rcell_6_25 Rcell_6_26 Rcell_6_27 Rcell_6_28 Rcell_6_29 Rcell_6_30 Rcell_6_31 Rcell_6_32 Rcell_6_33 Rcell_6_34 Rcell_6_35 Rcell_6_36 Rcell_6_37 Rcell_6_38 Rcell_6_39 Rcell_6_40 Rcell_6_41 Rcell_6_42 Rcell_6_43 Rcell_6_44 Rcell_6_45 Rcell_6_46 Rcell_6_47 Rcell_6_48 Rcell_6_49 Rcell_6_50 Rcell_6_51 Rcell_6_52 Rcell_6_53 Rcell_6_54 Rcell_6_55 Rcell_6_56 Rcell_6_57 Rcell_6_58 Rcell_6_59 Rcell_6_60 Rcell_6_61 Rcell_6_62 Rcell_6_63 Rcell_6_64 Rcell_6_65 Rcell_6_66 Rcell_6_67 Rcell_6_68 Rcell_6_69 Rcell_6_70 Rcell_6_71 Rcell_6_72 Rcell_6_73 Rcell_6_74 Rcell_6_75 Rcell_6_76 Rcell_6_77 Rcell_6_78 Rcell_6_79 Rcell_6_80 Rcell_6_81 Rcell_6_82 Rcell_6_83 Rcell_6_84 Rcell_6_85 Rcell_6_86 Rcell_6_87 Rcell_6_88 Rcell_6_89 Rcell_6_90 Rcell_6_91 Rcell_6_92 Rcell_6_93 Rcell_6_94 Rcell_6_95 Rcell_6_96 Rcell_6_97 Rcell_6_98 Rcell_6_99 Rcell_6_100 Rcell_6_101 Rcell_6_102 Rcell_6_103 Rcell_6_104 Rcell_6_105 Rcell_6_106 Rcell_6_107 Rcell_6_108 Rcell_6_109 Rcell_6_110 Rcell_6_111 Rcell_6_112 Rcell_6_113 Rcell_6_114 Rcell_6_115 Rcell_6_116 Rcell_6_117 Rcell_6_118 Rcell_6_119 Rcell_6_120 Rcell_6_121 Rcell_6_122 Rcell_6_123 Rcell_6_124 Rcell_6_125 Rcell_6_126 Rcell_6_127 Rcell_7_0 Rcell_7_1 Rcell_7_2 Rcell_7_3 Rcell_7_4 Rcell_7_5 Rcell_7_6 Rcell_7_7 Rcell_7_8 Rcell_7_9 Rcell_7_10 Rcell_7_11 Rcell_7_12 Rcell_7_13 Rcell_7_14 Rcell_7_15 Rcell_7_16 Rcell_7_17 Rcell_7_18 Rcell_7_19 Rcell_7_20 Rcell_7_21 Rcell_7_22 Rcell_7_23 Rcell_7_24 Rcell_7_25 Rcell_7_26 Rcell_7_27 Rcell_7_28 Rcell_7_29 Rcell_7_30 Rcell_7_31 Rcell_7_32 Rcell_7_33 Rcell_7_34 Rcell_7_35 Rcell_7_36 Rcell_7_37 Rcell_7_38 Rcell_7_39 Rcell_7_40 Rcell_7_41 Rcell_7_42 Rcell_7_43 Rcell_7_44 Rcell_7_45 Rcell_7_46 Rcell_7_47 Rcell_7_48 Rcell_7_49 Rcell_7_50 Rcell_7_51 Rcell_7_52 Rcell_7_53 Rcell_7_54 Rcell_7_55 Rcell_7_56 Rcell_7_57 Rcell_7_58 Rcell_7_59 Rcell_7_60 Rcell_7_61 Rcell_7_62 Rcell_7_63 Rcell_7_64 Rcell_7_65 Rcell_7_66 Rcell_7_67 Rcell_7_68 Rcell_7_69 Rcell_7_70 Rcell_7_71 Rcell_7_72 Rcell_7_73 Rcell_7_74 Rcell_7_75 Rcell_7_76 Rcell_7_77 Rcell_7_78 Rcell_7_79 Rcell_7_80 Rcell_7_81 Rcell_7_82 Rcell_7_83 Rcell_7_84 Rcell_7_85 Rcell_7_86 Rcell_7_87 Rcell_7_88 Rcell_7_89 Rcell_7_90 Rcell_7_91 Rcell_7_92 Rcell_7_93 Rcell_7_94 Rcell_7_95 Rcell_7_96 Rcell_7_97 Rcell_7_98 Rcell_7_99 Rcell_7_100 Rcell_7_101 Rcell_7_102 Rcell_7_103 Rcell_7_104 Rcell_7_105 Rcell_7_106 Rcell_7_107 Rcell_7_108 Rcell_7_109 Rcell_7_110 Rcell_7_111 Rcell_7_112 Rcell_7_113 Rcell_7_114 Rcell_7_115 Rcell_7_116 Rcell_7_117 Rcell_7_118 Rcell_7_119 Rcell_7_120 Rcell_7_121 Rcell_7_122 Rcell_7_123 Rcell_7_124 Rcell_7_125 Rcell_7_126 Rcell_7_127 Rcell_8_0 Rcell_8_1 Rcell_8_2 Rcell_8_3 Rcell_8_4 Rcell_8_5 Rcell_8_6 Rcell_8_7 Rcell_8_8 Rcell_8_9 Rcell_8_10 Rcell_8_11 Rcell_8_12 Rcell_8_13 Rcell_8_14 Rcell_8_15 Rcell_8_16 Rcell_8_17 Rcell_8_18 Rcell_8_19 Rcell_8_20 Rcell_8_21 Rcell_8_22 Rcell_8_23 Rcell_8_24 Rcell_8_25 Rcell_8_26 Rcell_8_27 Rcell_8_28 Rcell_8_29 Rcell_8_30 Rcell_8_31 Rcell_8_32 Rcell_8_33 Rcell_8_34 Rcell_8_35 Rcell_8_36 Rcell_8_37 Rcell_8_38 Rcell_8_39 Rcell_8_40 Rcell_8_41 Rcell_8_42 Rcell_8_43 Rcell_8_44 Rcell_8_45 Rcell_8_46 Rcell_8_47 Rcell_8_48 Rcell_8_49 Rcell_8_50 Rcell_8_51 Rcell_8_52 Rcell_8_53 Rcell_8_54 Rcell_8_55 Rcell_8_56 Rcell_8_57 Rcell_8_58 Rcell_8_59 Rcell_8_60 Rcell_8_61 Rcell_8_62 Rcell_8_63 Rcell_8_64 Rcell_8_65 Rcell_8_66 Rcell_8_67 Rcell_8_68 Rcell_8_69 Rcell_8_70 Rcell_8_71 Rcell_8_72 Rcell_8_73 Rcell_8_74 Rcell_8_75 Rcell_8_76 Rcell_8_77 Rcell_8_78 Rcell_8_79 Rcell_8_80 Rcell_8_81 Rcell_8_82 Rcell_8_83 Rcell_8_84 Rcell_8_85 Rcell_8_86 Rcell_8_87 Rcell_8_88 Rcell_8_89 Rcell_8_90 Rcell_8_91 Rcell_8_92 Rcell_8_93 Rcell_8_94 Rcell_8_95 Rcell_8_96 Rcell_8_97 Rcell_8_98 Rcell_8_99 Rcell_8_100 Rcell_8_101 Rcell_8_102 Rcell_8_103 Rcell_8_104 Rcell_8_105 Rcell_8_106 Rcell_8_107 Rcell_8_108 Rcell_8_109 Rcell_8_110 Rcell_8_111 Rcell_8_112 Rcell_8_113 Rcell_8_114 Rcell_8_115 Rcell_8_116 Rcell_8_117 Rcell_8_118 Rcell_8_119 Rcell_8_120 Rcell_8_121 Rcell_8_122 Rcell_8_123 Rcell_8_124 Rcell_8_125 Rcell_8_126 Rcell_8_127 Rcell_9_0 Rcell_9_1 Rcell_9_2 Rcell_9_3 Rcell_9_4 Rcell_9_5 Rcell_9_6 Rcell_9_7 Rcell_9_8 Rcell_9_9 Rcell_9_10 Rcell_9_11 Rcell_9_12 Rcell_9_13 Rcell_9_14 Rcell_9_15 Rcell_9_16 Rcell_9_17 Rcell_9_18 Rcell_9_19 Rcell_9_20 Rcell_9_21 Rcell_9_22 Rcell_9_23 Rcell_9_24 Rcell_9_25 Rcell_9_26 Rcell_9_27 Rcell_9_28 Rcell_9_29 Rcell_9_30 Rcell_9_31 Rcell_9_32 Rcell_9_33 Rcell_9_34 Rcell_9_35 Rcell_9_36 Rcell_9_37 Rcell_9_38 Rcell_9_39 Rcell_9_40 Rcell_9_41 Rcell_9_42 Rcell_9_43 Rcell_9_44 Rcell_9_45 Rcell_9_46 Rcell_9_47 Rcell_9_48 Rcell_9_49 Rcell_9_50 Rcell_9_51 Rcell_9_52 Rcell_9_53 Rcell_9_54 Rcell_9_55 Rcell_9_56 Rcell_9_57 Rcell_9_58 Rcell_9_59 Rcell_9_60 Rcell_9_61 Rcell_9_62 Rcell_9_63 Rcell_9_64 Rcell_9_65 Rcell_9_66 Rcell_9_67 Rcell_9_68 Rcell_9_69 Rcell_9_70 Rcell_9_71 Rcell_9_72 Rcell_9_73 Rcell_9_74 Rcell_9_75 Rcell_9_76 Rcell_9_77 Rcell_9_78 Rcell_9_79 Rcell_9_80 Rcell_9_81 Rcell_9_82 Rcell_9_83 Rcell_9_84 Rcell_9_85 Rcell_9_86 Rcell_9_87 Rcell_9_88 Rcell_9_89 Rcell_9_90 Rcell_9_91 Rcell_9_92 Rcell_9_93 Rcell_9_94 Rcell_9_95 Rcell_9_96 Rcell_9_97 Rcell_9_98 Rcell_9_99 Rcell_9_100 Rcell_9_101 Rcell_9_102 Rcell_9_103 Rcell_9_104 Rcell_9_105 Rcell_9_106 Rcell_9_107 Rcell_9_108 Rcell_9_109 Rcell_9_110 Rcell_9_111 Rcell_9_112 Rcell_9_113 Rcell_9_114 Rcell_9_115 Rcell_9_116 Rcell_9_117 Rcell_9_118 Rcell_9_119 Rcell_9_120 Rcell_9_121 Rcell_9_122 Rcell_9_123 Rcell_9_124 Rcell_9_125 Rcell_9_126 Rcell_9_127 Rcell_10_0 Rcell_10_1 Rcell_10_2 Rcell_10_3 Rcell_10_4 Rcell_10_5 Rcell_10_6 Rcell_10_7 Rcell_10_8 Rcell_10_9 Rcell_10_10 Rcell_10_11 Rcell_10_12 Rcell_10_13 Rcell_10_14 Rcell_10_15 Rcell_10_16 Rcell_10_17 Rcell_10_18 Rcell_10_19 Rcell_10_20 Rcell_10_21 Rcell_10_22 Rcell_10_23 Rcell_10_24 Rcell_10_25 Rcell_10_26 Rcell_10_27 Rcell_10_28 Rcell_10_29 Rcell_10_30 Rcell_10_31 Rcell_10_32 Rcell_10_33 Rcell_10_34 Rcell_10_35 Rcell_10_36 Rcell_10_37 Rcell_10_38 Rcell_10_39 Rcell_10_40 Rcell_10_41 Rcell_10_42 Rcell_10_43 Rcell_10_44 Rcell_10_45 Rcell_10_46 Rcell_10_47 Rcell_10_48 Rcell_10_49 Rcell_10_50 Rcell_10_51 Rcell_10_52 Rcell_10_53 Rcell_10_54 Rcell_10_55 Rcell_10_56 Rcell_10_57 Rcell_10_58 Rcell_10_59 Rcell_10_60 Rcell_10_61 Rcell_10_62 Rcell_10_63 Rcell_10_64 Rcell_10_65 Rcell_10_66 Rcell_10_67 Rcell_10_68 Rcell_10_69 Rcell_10_70 Rcell_10_71 Rcell_10_72 Rcell_10_73 Rcell_10_74 Rcell_10_75 Rcell_10_76 Rcell_10_77 Rcell_10_78 Rcell_10_79 Rcell_10_80 Rcell_10_81 Rcell_10_82 Rcell_10_83 Rcell_10_84 Rcell_10_85 Rcell_10_86 Rcell_10_87 Rcell_10_88 Rcell_10_89 Rcell_10_90 Rcell_10_91 Rcell_10_92 Rcell_10_93 Rcell_10_94 Rcell_10_95 Rcell_10_96 Rcell_10_97 Rcell_10_98 Rcell_10_99 Rcell_10_100 Rcell_10_101 Rcell_10_102 Rcell_10_103 Rcell_10_104 Rcell_10_105 Rcell_10_106 Rcell_10_107 Rcell_10_108 Rcell_10_109 Rcell_10_110 Rcell_10_111 Rcell_10_112 Rcell_10_113 Rcell_10_114 Rcell_10_115 Rcell_10_116 Rcell_10_117 Rcell_10_118 Rcell_10_119 Rcell_10_120 Rcell_10_121 Rcell_10_122 Rcell_10_123 Rcell_10_124 Rcell_10_125 Rcell_10_126 Rcell_10_127 Rcell_11_0 Rcell_11_1 Rcell_11_2 Rcell_11_3 Rcell_11_4 Rcell_11_5 Rcell_11_6 Rcell_11_7 Rcell_11_8 Rcell_11_9 Rcell_11_10 Rcell_11_11 Rcell_11_12 Rcell_11_13 Rcell_11_14 Rcell_11_15 Rcell_11_16 Rcell_11_17 Rcell_11_18 Rcell_11_19 Rcell_11_20 Rcell_11_21 Rcell_11_22 Rcell_11_23 Rcell_11_24 Rcell_11_25 Rcell_11_26 Rcell_11_27 Rcell_11_28 Rcell_11_29 Rcell_11_30 Rcell_11_31 Rcell_11_32 Rcell_11_33 Rcell_11_34 Rcell_11_35 Rcell_11_36 Rcell_11_37 Rcell_11_38 Rcell_11_39 Rcell_11_40 Rcell_11_41 Rcell_11_42 Rcell_11_43 Rcell_11_44 Rcell_11_45 Rcell_11_46 Rcell_11_47 Rcell_11_48 Rcell_11_49 Rcell_11_50 Rcell_11_51 Rcell_11_52 Rcell_11_53 Rcell_11_54 Rcell_11_55 Rcell_11_56 Rcell_11_57 Rcell_11_58 Rcell_11_59 Rcell_11_60 Rcell_11_61 Rcell_11_62 Rcell_11_63 Rcell_11_64 Rcell_11_65 Rcell_11_66 Rcell_11_67 Rcell_11_68 Rcell_11_69 Rcell_11_70 Rcell_11_71 Rcell_11_72 Rcell_11_73 Rcell_11_74 Rcell_11_75 Rcell_11_76 Rcell_11_77 Rcell_11_78 Rcell_11_79 Rcell_11_80 Rcell_11_81 Rcell_11_82 Rcell_11_83 Rcell_11_84 Rcell_11_85 Rcell_11_86 Rcell_11_87 Rcell_11_88 Rcell_11_89 Rcell_11_90 Rcell_11_91 Rcell_11_92 Rcell_11_93 Rcell_11_94 Rcell_11_95 Rcell_11_96 Rcell_11_97 Rcell_11_98 Rcell_11_99 Rcell_11_100 Rcell_11_101 Rcell_11_102 Rcell_11_103 Rcell_11_104 Rcell_11_105 Rcell_11_106 Rcell_11_107 Rcell_11_108 Rcell_11_109 Rcell_11_110 Rcell_11_111 Rcell_11_112 Rcell_11_113 Rcell_11_114 Rcell_11_115 Rcell_11_116 Rcell_11_117 Rcell_11_118 Rcell_11_119 Rcell_11_120 Rcell_11_121 Rcell_11_122 Rcell_11_123 Rcell_11_124 Rcell_11_125 Rcell_11_126 Rcell_11_127 Rcell_12_0 Rcell_12_1 Rcell_12_2 Rcell_12_3 Rcell_12_4 Rcell_12_5 Rcell_12_6 Rcell_12_7 Rcell_12_8 Rcell_12_9 Rcell_12_10 Rcell_12_11 Rcell_12_12 Rcell_12_13 Rcell_12_14 Rcell_12_15 Rcell_12_16 Rcell_12_17 Rcell_12_18 Rcell_12_19 Rcell_12_20 Rcell_12_21 Rcell_12_22 Rcell_12_23 Rcell_12_24 Rcell_12_25 Rcell_12_26 Rcell_12_27 Rcell_12_28 Rcell_12_29 Rcell_12_30 Rcell_12_31 Rcell_12_32 Rcell_12_33 Rcell_12_34 Rcell_12_35 Rcell_12_36 Rcell_12_37 Rcell_12_38 Rcell_12_39 Rcell_12_40 Rcell_12_41 Rcell_12_42 Rcell_12_43 Rcell_12_44 Rcell_12_45 Rcell_12_46 Rcell_12_47 Rcell_12_48 Rcell_12_49 Rcell_12_50 Rcell_12_51 Rcell_12_52 Rcell_12_53 Rcell_12_54 Rcell_12_55 Rcell_12_56 Rcell_12_57 Rcell_12_58 Rcell_12_59 Rcell_12_60 Rcell_12_61 Rcell_12_62 Rcell_12_63 Rcell_12_64 Rcell_12_65 Rcell_12_66 Rcell_12_67 Rcell_12_68 Rcell_12_69 Rcell_12_70 Rcell_12_71 Rcell_12_72 Rcell_12_73 Rcell_12_74 Rcell_12_75 Rcell_12_76 Rcell_12_77 Rcell_12_78 Rcell_12_79 Rcell_12_80 Rcell_12_81 Rcell_12_82 Rcell_12_83 Rcell_12_84 Rcell_12_85 Rcell_12_86 Rcell_12_87 Rcell_12_88 Rcell_12_89 Rcell_12_90 Rcell_12_91 Rcell_12_92 Rcell_12_93 Rcell_12_94 Rcell_12_95 Rcell_12_96 Rcell_12_97 Rcell_12_98 Rcell_12_99 Rcell_12_100 Rcell_12_101 Rcell_12_102 Rcell_12_103 Rcell_12_104 Rcell_12_105 Rcell_12_106 Rcell_12_107 Rcell_12_108 Rcell_12_109 Rcell_12_110 Rcell_12_111 Rcell_12_112 Rcell_12_113 Rcell_12_114 Rcell_12_115 Rcell_12_116 Rcell_12_117 Rcell_12_118 Rcell_12_119 Rcell_12_120 Rcell_12_121 Rcell_12_122 Rcell_12_123 Rcell_12_124 Rcell_12_125 Rcell_12_126 Rcell_12_127 Rcell_13_0 Rcell_13_1 Rcell_13_2 Rcell_13_3 Rcell_13_4 Rcell_13_5 Rcell_13_6 Rcell_13_7 Rcell_13_8 Rcell_13_9 Rcell_13_10 Rcell_13_11 Rcell_13_12 Rcell_13_13 Rcell_13_14 Rcell_13_15 Rcell_13_16 Rcell_13_17 Rcell_13_18 Rcell_13_19 Rcell_13_20 Rcell_13_21 Rcell_13_22 Rcell_13_23 Rcell_13_24 Rcell_13_25 Rcell_13_26 Rcell_13_27 Rcell_13_28 Rcell_13_29 Rcell_13_30 Rcell_13_31 Rcell_13_32 Rcell_13_33 Rcell_13_34 Rcell_13_35 Rcell_13_36 Rcell_13_37 Rcell_13_38 Rcell_13_39 Rcell_13_40 Rcell_13_41 Rcell_13_42 Rcell_13_43 Rcell_13_44 Rcell_13_45 Rcell_13_46 Rcell_13_47 Rcell_13_48 Rcell_13_49 Rcell_13_50 Rcell_13_51 Rcell_13_52 Rcell_13_53 Rcell_13_54 Rcell_13_55 Rcell_13_56 Rcell_13_57 Rcell_13_58 Rcell_13_59 Rcell_13_60 Rcell_13_61 Rcell_13_62 Rcell_13_63 Rcell_13_64 Rcell_13_65 Rcell_13_66 Rcell_13_67 Rcell_13_68 Rcell_13_69 Rcell_13_70 Rcell_13_71 Rcell_13_72 Rcell_13_73 Rcell_13_74 Rcell_13_75 Rcell_13_76 Rcell_13_77 Rcell_13_78 Rcell_13_79 Rcell_13_80 Rcell_13_81 Rcell_13_82 Rcell_13_83 Rcell_13_84 Rcell_13_85 Rcell_13_86 Rcell_13_87 Rcell_13_88 Rcell_13_89 Rcell_13_90 Rcell_13_91 Rcell_13_92 Rcell_13_93 Rcell_13_94 Rcell_13_95 Rcell_13_96 Rcell_13_97 Rcell_13_98 Rcell_13_99 Rcell_13_100 Rcell_13_101 Rcell_13_102 Rcell_13_103 Rcell_13_104 Rcell_13_105 Rcell_13_106 Rcell_13_107 Rcell_13_108 Rcell_13_109 Rcell_13_110 Rcell_13_111 Rcell_13_112 Rcell_13_113 Rcell_13_114 Rcell_13_115 Rcell_13_116 Rcell_13_117 Rcell_13_118 Rcell_13_119 Rcell_13_120 Rcell_13_121 Rcell_13_122 Rcell_13_123 Rcell_13_124 Rcell_13_125 Rcell_13_126 Rcell_13_127 Rcell_14_0 Rcell_14_1 Rcell_14_2 Rcell_14_3 Rcell_14_4 Rcell_14_5 Rcell_14_6 Rcell_14_7 Rcell_14_8 Rcell_14_9 Rcell_14_10 Rcell_14_11 Rcell_14_12 Rcell_14_13 Rcell_14_14 Rcell_14_15 Rcell_14_16 Rcell_14_17 Rcell_14_18 Rcell_14_19 Rcell_14_20 Rcell_14_21 Rcell_14_22 Rcell_14_23 Rcell_14_24 Rcell_14_25 Rcell_14_26 Rcell_14_27 Rcell_14_28 Rcell_14_29 Rcell_14_30 Rcell_14_31 Rcell_14_32 Rcell_14_33 Rcell_14_34 Rcell_14_35 Rcell_14_36 Rcell_14_37 Rcell_14_38 Rcell_14_39 Rcell_14_40 Rcell_14_41 Rcell_14_42 Rcell_14_43 Rcell_14_44 Rcell_14_45 Rcell_14_46 Rcell_14_47 Rcell_14_48 Rcell_14_49 Rcell_14_50 Rcell_14_51 Rcell_14_52 Rcell_14_53 Rcell_14_54 Rcell_14_55 Rcell_14_56 Rcell_14_57 Rcell_14_58 Rcell_14_59 Rcell_14_60 Rcell_14_61 Rcell_14_62 Rcell_14_63 Rcell_14_64 Rcell_14_65 Rcell_14_66 Rcell_14_67 Rcell_14_68 Rcell_14_69 Rcell_14_70 Rcell_14_71 Rcell_14_72 Rcell_14_73 Rcell_14_74 Rcell_14_75 Rcell_14_76 Rcell_14_77 Rcell_14_78 Rcell_14_79 Rcell_14_80 Rcell_14_81 Rcell_14_82 Rcell_14_83 Rcell_14_84 Rcell_14_85 Rcell_14_86 Rcell_14_87 Rcell_14_88 Rcell_14_89 Rcell_14_90 Rcell_14_91 Rcell_14_92 Rcell_14_93 Rcell_14_94 Rcell_14_95 Rcell_14_96 Rcell_14_97 Rcell_14_98 Rcell_14_99 Rcell_14_100 Rcell_14_101 Rcell_14_102 Rcell_14_103 Rcell_14_104 Rcell_14_105 Rcell_14_106 Rcell_14_107 Rcell_14_108 Rcell_14_109 Rcell_14_110 Rcell_14_111 Rcell_14_112 Rcell_14_113 Rcell_14_114 Rcell_14_115 Rcell_14_116 Rcell_14_117 Rcell_14_118 Rcell_14_119 Rcell_14_120 Rcell_14_121 Rcell_14_122 Rcell_14_123 Rcell_14_124 Rcell_14_125 Rcell_14_126 Rcell_14_127 Rcell_15_0 Rcell_15_1 Rcell_15_2 Rcell_15_3 Rcell_15_4 Rcell_15_5 Rcell_15_6 Rcell_15_7 Rcell_15_8 Rcell_15_9 Rcell_15_10 Rcell_15_11 Rcell_15_12 Rcell_15_13 Rcell_15_14 Rcell_15_15 Rcell_15_16 Rcell_15_17 Rcell_15_18 Rcell_15_19 Rcell_15_20 Rcell_15_21 Rcell_15_22 Rcell_15_23 Rcell_15_24 Rcell_15_25 Rcell_15_26 Rcell_15_27 Rcell_15_28 Rcell_15_29 Rcell_15_30 Rcell_15_31 Rcell_15_32 Rcell_15_33 Rcell_15_34 Rcell_15_35 Rcell_15_36 Rcell_15_37 Rcell_15_38 Rcell_15_39 Rcell_15_40 Rcell_15_41 Rcell_15_42 Rcell_15_43 Rcell_15_44 Rcell_15_45 Rcell_15_46 Rcell_15_47 Rcell_15_48 Rcell_15_49 Rcell_15_50 Rcell_15_51 Rcell_15_52 Rcell_15_53 Rcell_15_54 Rcell_15_55 Rcell_15_56 Rcell_15_57 Rcell_15_58 Rcell_15_59 Rcell_15_60 Rcell_15_61 Rcell_15_62 Rcell_15_63 Rcell_15_64 Rcell_15_65 Rcell_15_66 Rcell_15_67 Rcell_15_68 Rcell_15_69 Rcell_15_70 Rcell_15_71 Rcell_15_72 Rcell_15_73 Rcell_15_74 Rcell_15_75 Rcell_15_76 Rcell_15_77 Rcell_15_78 Rcell_15_79 Rcell_15_80 Rcell_15_81 Rcell_15_82 Rcell_15_83 Rcell_15_84 Rcell_15_85 Rcell_15_86 Rcell_15_87 Rcell_15_88 Rcell_15_89 Rcell_15_90 Rcell_15_91 Rcell_15_92 Rcell_15_93 Rcell_15_94 Rcell_15_95 Rcell_15_96 Rcell_15_97 Rcell_15_98 Rcell_15_99 Rcell_15_100 Rcell_15_101 Rcell_15_102 Rcell_15_103 Rcell_15_104 Rcell_15_105 Rcell_15_106 Rcell_15_107 Rcell_15_108 Rcell_15_109 Rcell_15_110 Rcell_15_111 Rcell_15_112 Rcell_15_113 Rcell_15_114 Rcell_15_115 Rcell_15_116 Rcell_15_117 Rcell_15_118 Rcell_15_119 Rcell_15_120 Rcell_15_121 Rcell_15_122 Rcell_15_123 Rcell_15_124 Rcell_15_125 Rcell_15_126 Rcell_15_127 Rcell_16_0 Rcell_16_1 Rcell_16_2 Rcell_16_3 Rcell_16_4 Rcell_16_5 Rcell_16_6 Rcell_16_7 Rcell_16_8 Rcell_16_9 Rcell_16_10 Rcell_16_11 Rcell_16_12 Rcell_16_13 Rcell_16_14 Rcell_16_15 Rcell_16_16 Rcell_16_17 Rcell_16_18 Rcell_16_19 Rcell_16_20 Rcell_16_21 Rcell_16_22 Rcell_16_23 Rcell_16_24 Rcell_16_25 Rcell_16_26 Rcell_16_27 Rcell_16_28 Rcell_16_29 Rcell_16_30 Rcell_16_31 Rcell_16_32 Rcell_16_33 Rcell_16_34 Rcell_16_35 Rcell_16_36 Rcell_16_37 Rcell_16_38 Rcell_16_39 Rcell_16_40 Rcell_16_41 Rcell_16_42 Rcell_16_43 Rcell_16_44 Rcell_16_45 Rcell_16_46 Rcell_16_47 Rcell_16_48 Rcell_16_49 Rcell_16_50 Rcell_16_51 Rcell_16_52 Rcell_16_53 Rcell_16_54 Rcell_16_55 Rcell_16_56 Rcell_16_57 Rcell_16_58 Rcell_16_59 Rcell_16_60 Rcell_16_61 Rcell_16_62 Rcell_16_63 Rcell_16_64 Rcell_16_65 Rcell_16_66 Rcell_16_67 Rcell_16_68 Rcell_16_69 Rcell_16_70 Rcell_16_71 Rcell_16_72 Rcell_16_73 Rcell_16_74 Rcell_16_75 Rcell_16_76 Rcell_16_77 Rcell_16_78 Rcell_16_79 Rcell_16_80 Rcell_16_81 Rcell_16_82 Rcell_16_83 Rcell_16_84 Rcell_16_85 Rcell_16_86 Rcell_16_87 Rcell_16_88 Rcell_16_89 Rcell_16_90 Rcell_16_91 Rcell_16_92 Rcell_16_93 Rcell_16_94 Rcell_16_95 Rcell_16_96 Rcell_16_97 Rcell_16_98 Rcell_16_99 Rcell_16_100 Rcell_16_101 Rcell_16_102 Rcell_16_103 Rcell_16_104 Rcell_16_105 Rcell_16_106 Rcell_16_107 Rcell_16_108 Rcell_16_109 Rcell_16_110 Rcell_16_111 Rcell_16_112 Rcell_16_113 Rcell_16_114 Rcell_16_115 Rcell_16_116 Rcell_16_117 Rcell_16_118 Rcell_16_119 Rcell_16_120 Rcell_16_121 Rcell_16_122 Rcell_16_123 Rcell_16_124 Rcell_16_125 Rcell_16_126 Rcell_16_127 Rcell_17_0 Rcell_17_1 Rcell_17_2 Rcell_17_3 Rcell_17_4 Rcell_17_5 Rcell_17_6 Rcell_17_7 Rcell_17_8 Rcell_17_9 Rcell_17_10 Rcell_17_11 Rcell_17_12 Rcell_17_13 Rcell_17_14 Rcell_17_15 Rcell_17_16 Rcell_17_17 Rcell_17_18 Rcell_17_19 Rcell_17_20 Rcell_17_21 Rcell_17_22 Rcell_17_23 Rcell_17_24 Rcell_17_25 Rcell_17_26 Rcell_17_27 Rcell_17_28 Rcell_17_29 Rcell_17_30 Rcell_17_31 Rcell_17_32 Rcell_17_33 Rcell_17_34 Rcell_17_35 Rcell_17_36 Rcell_17_37 Rcell_17_38 Rcell_17_39 Rcell_17_40 Rcell_17_41 Rcell_17_42 Rcell_17_43 Rcell_17_44 Rcell_17_45 Rcell_17_46 Rcell_17_47 Rcell_17_48 Rcell_17_49 Rcell_17_50 Rcell_17_51 Rcell_17_52 Rcell_17_53 Rcell_17_54 Rcell_17_55 Rcell_17_56 Rcell_17_57 Rcell_17_58 Rcell_17_59 Rcell_17_60 Rcell_17_61 Rcell_17_62 Rcell_17_63 Rcell_17_64 Rcell_17_65 Rcell_17_66 Rcell_17_67 Rcell_17_68 Rcell_17_69 Rcell_17_70 Rcell_17_71 Rcell_17_72 Rcell_17_73 Rcell_17_74 Rcell_17_75 Rcell_17_76 Rcell_17_77 Rcell_17_78 Rcell_17_79 Rcell_17_80 Rcell_17_81 Rcell_17_82 Rcell_17_83 Rcell_17_84 Rcell_17_85 Rcell_17_86 Rcell_17_87 Rcell_17_88 Rcell_17_89 Rcell_17_90 Rcell_17_91 Rcell_17_92 Rcell_17_93 Rcell_17_94 Rcell_17_95 Rcell_17_96 Rcell_17_97 Rcell_17_98 Rcell_17_99 Rcell_17_100 Rcell_17_101 Rcell_17_102 Rcell_17_103 Rcell_17_104 Rcell_17_105 Rcell_17_106 Rcell_17_107 Rcell_17_108 Rcell_17_109 Rcell_17_110 Rcell_17_111 Rcell_17_112 Rcell_17_113 Rcell_17_114 Rcell_17_115 Rcell_17_116 Rcell_17_117 Rcell_17_118 Rcell_17_119 Rcell_17_120 Rcell_17_121 Rcell_17_122 Rcell_17_123 Rcell_17_124 Rcell_17_125 Rcell_17_126 Rcell_17_127 Rcell_18_0 Rcell_18_1 Rcell_18_2 Rcell_18_3 Rcell_18_4 Rcell_18_5 Rcell_18_6 Rcell_18_7 Rcell_18_8 Rcell_18_9 Rcell_18_10 Rcell_18_11 Rcell_18_12 Rcell_18_13 Rcell_18_14 Rcell_18_15 Rcell_18_16 Rcell_18_17 Rcell_18_18 Rcell_18_19 Rcell_18_20 Rcell_18_21 Rcell_18_22 Rcell_18_23 Rcell_18_24 Rcell_18_25 Rcell_18_26 Rcell_18_27 Rcell_18_28 Rcell_18_29 Rcell_18_30 Rcell_18_31 Rcell_18_32 Rcell_18_33 Rcell_18_34 Rcell_18_35 Rcell_18_36 Rcell_18_37 Rcell_18_38 Rcell_18_39 Rcell_18_40 Rcell_18_41 Rcell_18_42 Rcell_18_43 Rcell_18_44 Rcell_18_45 Rcell_18_46 Rcell_18_47 Rcell_18_48 Rcell_18_49 Rcell_18_50 Rcell_18_51 Rcell_18_52 Rcell_18_53 Rcell_18_54 Rcell_18_55 Rcell_18_56 Rcell_18_57 Rcell_18_58 Rcell_18_59 Rcell_18_60 Rcell_18_61 Rcell_18_62 Rcell_18_63 Rcell_18_64 Rcell_18_65 Rcell_18_66 Rcell_18_67 Rcell_18_68 Rcell_18_69 Rcell_18_70 Rcell_18_71 Rcell_18_72 Rcell_18_73 Rcell_18_74 Rcell_18_75 Rcell_18_76 Rcell_18_77 Rcell_18_78 Rcell_18_79 Rcell_18_80 Rcell_18_81 Rcell_18_82 Rcell_18_83 Rcell_18_84 Rcell_18_85 Rcell_18_86 Rcell_18_87 Rcell_18_88 Rcell_18_89 Rcell_18_90 Rcell_18_91 Rcell_18_92 Rcell_18_93 Rcell_18_94 Rcell_18_95 Rcell_18_96 Rcell_18_97 Rcell_18_98 Rcell_18_99 Rcell_18_100 Rcell_18_101 Rcell_18_102 Rcell_18_103 Rcell_18_104 Rcell_18_105 Rcell_18_106 Rcell_18_107 Rcell_18_108 Rcell_18_109 Rcell_18_110 Rcell_18_111 Rcell_18_112 Rcell_18_113 Rcell_18_114 Rcell_18_115 Rcell_18_116 Rcell_18_117 Rcell_18_118 Rcell_18_119 Rcell_18_120 Rcell_18_121 Rcell_18_122 Rcell_18_123 Rcell_18_124 Rcell_18_125 Rcell_18_126 Rcell_18_127 Rcell_19_0 Rcell_19_1 Rcell_19_2 Rcell_19_3 Rcell_19_4 Rcell_19_5 Rcell_19_6 Rcell_19_7 Rcell_19_8 Rcell_19_9 Rcell_19_10 Rcell_19_11 Rcell_19_12 Rcell_19_13 Rcell_19_14 Rcell_19_15 Rcell_19_16 Rcell_19_17 Rcell_19_18 Rcell_19_19 Rcell_19_20 Rcell_19_21 Rcell_19_22 Rcell_19_23 Rcell_19_24 Rcell_19_25 Rcell_19_26 Rcell_19_27 Rcell_19_28 Rcell_19_29 Rcell_19_30 Rcell_19_31 Rcell_19_32 Rcell_19_33 Rcell_19_34 Rcell_19_35 Rcell_19_36 Rcell_19_37 Rcell_19_38 Rcell_19_39 Rcell_19_40 Rcell_19_41 Rcell_19_42 Rcell_19_43 Rcell_19_44 Rcell_19_45 Rcell_19_46 Rcell_19_47 Rcell_19_48 Rcell_19_49 Rcell_19_50 Rcell_19_51 Rcell_19_52 Rcell_19_53 Rcell_19_54 Rcell_19_55 Rcell_19_56 Rcell_19_57 Rcell_19_58 Rcell_19_59 Rcell_19_60 Rcell_19_61 Rcell_19_62 Rcell_19_63 Rcell_19_64 Rcell_19_65 Rcell_19_66 Rcell_19_67 Rcell_19_68 Rcell_19_69 Rcell_19_70 Rcell_19_71 Rcell_19_72 Rcell_19_73 Rcell_19_74 Rcell_19_75 Rcell_19_76 Rcell_19_77 Rcell_19_78 Rcell_19_79 Rcell_19_80 Rcell_19_81 Rcell_19_82 Rcell_19_83 Rcell_19_84 Rcell_19_85 Rcell_19_86 Rcell_19_87 Rcell_19_88 Rcell_19_89 Rcell_19_90 Rcell_19_91 Rcell_19_92 Rcell_19_93 Rcell_19_94 Rcell_19_95 Rcell_19_96 Rcell_19_97 Rcell_19_98 Rcell_19_99 Rcell_19_100 Rcell_19_101 Rcell_19_102 Rcell_19_103 Rcell_19_104 Rcell_19_105 Rcell_19_106 Rcell_19_107 Rcell_19_108 Rcell_19_109 Rcell_19_110 Rcell_19_111 Rcell_19_112 Rcell_19_113 Rcell_19_114 Rcell_19_115 Rcell_19_116 Rcell_19_117 Rcell_19_118 Rcell_19_119 Rcel