
simulator lang=spectre

parameters vdd = 1

parameters PWmin = 100n                         //MinimalTransistorWidth
parameters PLmin = 45n                          //MinimalTransistorLenght
parameters WChargeBL = 3e-07         //BitLineChargerWidth(perBL)
parameters LChargeBL = 1.95e-07
parameters WDischargeBL = 1e-07   //BitLineDischargerWidth(perBL)
parameters WDischargeSL = 5e-07   //SourceLineDischargerWidth(perBL)
parameters Cpar = 0.18e-15                      //ParasiticCapacitor(perCell)
parameters PWn = 1e-07                     //DifferentialNpairWidth(perSA)
parameters PWp = 1e-07                     //DifferentialPpairWidth(perSA)
parameters PWpenable = 1e-07         //SenseAmpEnablePWidth(perSA)
parameters PWnenable = 1e-07         //SenseAmpEnableNWidth(perSA)
parameters PWmuxLB = 2e-07                //PassgateWidth(perMuxLB)
parameters PWmuxGB = 2e-07                //PassgateWidth(perMuxGB)

parameters numberofruns = 1
parameters enableMismatch = 0   //Mismatch
parameters simlength = 1.8e-08


parameters RMEMHigh = 32500;
parameters RMEMLow = 7500;

parameters Rcell_0_0_0_0 = RMEMHigh
parameters Rcell_0_0_0_1 = RMEMLow
parameters Rcell_0_0_0_2 = RMEMHigh
parameters Rcell_0_0_0_3 = RMEMLow
parameters Rcell_0_0_0_4 = RMEMHigh
parameters Rcell_0_0_0_5 = RMEMLow
parameters Rcell_0_0_0_6 = RMEMLow
parameters Rcell_0_0_0_7 = RMEMHigh
parameters Rcell_0_0_0_8 = RMEMHigh
parameters Rcell_0_0_0_9 = RMEMLow
parameters Rcell_0_0_0_10 = RMEMHigh
parameters Rcell_0_0_0_11 = RMEMHigh
parameters Rcell_0_0_0_12 = RMEMLow
parameters Rcell_0_0_0_13 = RMEMHigh
parameters Rcell_0_0_0_14 = RMEMHigh
parameters Rcell_0_0_0_15 = RMEMLow
parameters Rcell_0_0_1_0 = RMEMLow
parameters Rcell_0_0_1_1 = RMEMHigh
parameters Rcell_0_0_1_2 = RMEMHigh
parameters Rcell_0_0_1_3 = RMEMLow
parameters Rcell_0_0_1_4 = RMEMHigh
parameters Rcell_0_0_1_5 = RMEMLow
parameters Rcell_0_0_1_6 = RMEMLow
parameters Rcell_0_0_1_7 = RMEMLow
parameters Rcell_0_0_1_8 = RMEMHigh
parameters Rcell_0_0_1_9 = RMEMHigh
parameters Rcell_0_0_1_10 = RMEMLow
parameters Rcell_0_0_1_11 = RMEMLow
parameters Rcell_0_0_1_12 = RMEMHigh
parameters Rcell_0_0_1_13 = RMEMHigh
parameters Rcell_0_0_1_14 = RMEMHigh
parameters Rcell_0_0_1_15 = RMEMHigh
parameters Rcell_0_0_2_0 = RMEMLow
parameters Rcell_0_0_2_1 = RMEMHigh
parameters Rcell_0_0_2_2 = RMEMHigh
parameters Rcell_0_0_2_3 = RMEMHigh
parameters Rcell_0_0_2_4 = RMEMHigh
parameters Rcell_0_0_2_5 = RMEMLow
parameters Rcell_0_0_2_6 = RMEMLow
parameters Rcell_0_0_2_7 = RMEMLow
parameters Rcell_0_0_2_8 = RMEMLow
parameters Rcell_0_0_2_9 = RMEMHigh
parameters Rcell_0_0_2_10 = RMEMHigh
parameters Rcell_0_0_2_11 = RMEMLow
parameters Rcell_0_0_2_12 = RMEMLow
parameters Rcell_0_0_2_13 = RMEMLow
parameters Rcell_0_0_2_14 = RMEMLow
parameters Rcell_0_0_2_15 = RMEMHigh
parameters Rcell_0_0_3_0 = RMEMHigh
parameters Rcell_0_0_3_1 = RMEMHigh
parameters Rcell_0_0_3_2 = RMEMLow
parameters Rcell_0_0_3_3 = RMEMLow
parameters Rcell_0_0_3_4 = RMEMLow
parameters Rcell_0_0_3_5 = RMEMHigh
parameters Rcell_0_0_3_6 = RMEMHigh
parameters Rcell_0_0_3_7 = RMEMHigh
parameters Rcell_0_0_3_8 = RMEMHigh
parameters Rcell_0_0_3_9 = RMEMHigh
parameters Rcell_0_0_3_10 = RMEMHigh
parameters Rcell_0_0_3_11 = RMEMHigh
parameters Rcell_0_0_3_12 = RMEMHigh
parameters Rcell_0_0_3_13 = RMEMHigh
parameters Rcell_0_0_3_14 = RMEMHigh
parameters Rcell_0_0_3_15 = RMEMLow
parameters Rcell_0_0_4_0 = RMEMHigh
parameters Rcell_0_0_4_1 = RMEMHigh
parameters Rcell_0_0_4_2 = RMEMHigh
parameters Rcell_0_0_4_3 = RMEMLow
parameters Rcell_0_0_4_4 = RMEMHigh
parameters Rcell_0_0_4_5 = RMEMLow
parameters Rcell_0_0_4_6 = RMEMLow
parameters Rcell_0_0_4_7 = RMEMLow
parameters Rcell_0_0_4_8 = RMEMHigh
parameters Rcell_0_0_4_9 = RMEMLow
parameters Rcell_0_0_4_10 = RMEMHigh
parameters Rcell_0_0_4_11 = RMEMLow
parameters Rcell_0_0_4_12 = RMEMLow
parameters Rcell_0_0_4_13 = RMEMLow
parameters Rcell_0_0_4_14 = RMEMHigh
parameters Rcell_0_0_4_15 = RMEMLow
parameters Rcell_0_0_5_0 = RMEMLow
parameters Rcell_0_0_5_1 = RMEMHigh
parameters Rcell_0_0_5_2 = RMEMLow
parameters Rcell_0_0_5_3 = RMEMHigh
parameters Rcell_0_0_5_4 = RMEMHigh
parameters Rcell_0_0_5_5 = RMEMLow
parameters Rcell_0_0_5_6 = RMEMLow
parameters Rcell_0_0_5_7 = RMEMLow
parameters Rcell_0_0_5_8 = RMEMHigh
parameters Rcell_0_0_5_9 = RMEMLow
parameters Rcell_0_0_5_10 = RMEMHigh
parameters Rcell_0_0_5_11 = RMEMHigh
parameters Rcell_0_0_5_12 = RMEMLow
parameters Rcell_0_0_5_13 = RMEMLow
parameters Rcell_0_0_5_14 = RMEMLow
parameters Rcell_0_0_5_15 = RMEMLow
parameters Rcell_0_0_6_0 = RMEMLow
parameters Rcell_0_0_6_1 = RMEMLow
parameters Rcell_0_0_6_2 = RMEMLow
parameters Rcell_0_0_6_3 = RMEMHigh
parameters Rcell_0_0_6_4 = RMEMHigh
parameters Rcell_0_0_6_5 = RMEMHigh
parameters Rcell_0_0_6_6 = RMEMHigh
parameters Rcell_0_0_6_7 = RMEMHigh
parameters Rcell_0_0_6_8 = RMEMHigh
parameters Rcell_0_0_6_9 = RMEMLow
parameters Rcell_0_0_6_10 = RMEMHigh
parameters Rcell_0_0_6_11 = RMEMLow
parameters Rcell_0_0_6_12 = RMEMLow
parameters Rcell_0_0_6_13 = RMEMLow
parameters Rcell_0_0_6_14 = RMEMHigh
parameters Rcell_0_0_6_15 = RMEMLow
parameters Rcell_0_0_7_0 = RMEMLow
parameters Rcell_0_0_7_1 = RMEMLow
parameters Rcell_0_0_7_2 = RMEMHigh
parameters Rcell_0_0_7_3 = RMEMHigh
parameters Rcell_0_0_7_4 = RMEMLow
parameters Rcell_0_0_7_5 = RMEMLow
parameters Rcell_0_0_7_6 = RMEMHigh
parameters Rcell_0_0_7_7 = RMEMHigh
parameters Rcell_0_0_7_8 = RMEMLow
parameters Rcell_0_0_7_9 = RMEMLow
parameters Rcell_0_0_7_10 = RMEMLow
parameters Rcell_0_0_7_11 = RMEMHigh
parameters Rcell_0_0_7_12 = RMEMHigh
parameters Rcell_0_0_7_13 = RMEMLow
parameters Rcell_0_0_7_14 = RMEMLow
parameters Rcell_0_0_7_15 = RMEMLow
parameters Rcell_0_0_8_0 = RMEMLow
parameters Rcell_0_0_8_1 = RMEMHigh
parameters Rcell_0_0_8_2 = RMEMLow
parameters Rcell_0_0_8_3 = RMEMLow
parameters Rcell_0_0_8_4 = RMEMLow
parameters Rcell_0_0_8_5 = RMEMHigh
parameters Rcell_0_0_8_6 = RMEMHigh
parameters Rcell_0_0_8_7 = RMEMLow
parameters Rcell_0_0_8_8 = RMEMHigh
parameters Rcell_0_0_8_9 = RMEMLow
parameters Rcell_0_0_8_10 = RMEMHigh
parameters Rcell_0_0_8_11 = RMEMLow
parameters Rcell_0_0_8_12 = RMEMHigh
parameters Rcell_0_0_8_13 = RMEMLow
parameters Rcell_0_0_8_14 = RMEMLow
parameters Rcell_0_0_8_15 = RMEMLow
parameters Rcell_0_0_9_0 = RMEMHigh
parameters Rcell_0_0_9_1 = RMEMHigh
parameters Rcell_0_0_9_2 = RMEMHigh
parameters Rcell_0_0_9_3 = RMEMLow
parameters Rcell_0_0_9_4 = RMEMLow
parameters Rcell_0_0_9_5 = RMEMHigh
parameters Rcell_0_0_9_6 = RMEMLow
parameters Rcell_0_0_9_7 = RMEMHigh
parameters Rcell_0_0_9_8 = RMEMHigh
parameters Rcell_0_0_9_9 = RMEMHigh
parameters Rcell_0_0_9_10 = RMEMLow
parameters Rcell_0_0_9_11 = RMEMHigh
parameters Rcell_0_0_9_12 = RMEMLow
parameters Rcell_0_0_9_13 = RMEMHigh
parameters Rcell_0_0_9_14 = RMEMHigh
parameters Rcell_0_0_9_15 = RMEMHigh
parameters Rcell_0_0_10_0 = RMEMLow
parameters Rcell_0_0_10_1 = RMEMLow
parameters Rcell_0_0_10_2 = RMEMHigh
parameters Rcell_0_0_10_3 = RMEMLow
parameters Rcell_0_0_10_4 = RMEMLow
parameters Rcell_0_0_10_5 = RMEMLow
parameters Rcell_0_0_10_6 = RMEMLow
parameters Rcell_0_0_10_7 = RMEMLow
parameters Rcell_0_0_10_8 = RMEMHigh
parameters Rcell_0_0_10_9 = RMEMLow
parameters Rcell_0_0_10_10 = RMEMLow
parameters Rcell_0_0_10_11 = RMEMLow
parameters Rcell_0_0_10_12 = RMEMLow
parameters Rcell_0_0_10_13 = RMEMLow
parameters Rcell_0_0_10_14 = RMEMLow
parameters Rcell_0_0_10_15 = RMEMLow
parameters Rcell_0_0_11_0 = RMEMLow
parameters Rcell_0_0_11_1 = RMEMLow
parameters Rcell_0_0_11_2 = RMEMHigh
parameters Rcell_0_0_11_3 = RMEMLow
parameters Rcell_0_0_11_4 = RMEMLow
parameters Rcell_0_0_11_5 = RMEMHigh
parameters Rcell_0_0_11_6 = RMEMLow
parameters Rcell_0_0_11_7 = RMEMHigh
parameters Rcell_0_0_11_8 = RMEMLow
parameters Rcell_0_0_11_9 = RMEMHigh
parameters Rcell_0_0_11_10 = RMEMHigh
parameters Rcell_0_0_11_11 = RMEMHigh
parameters Rcell_0_0_11_12 = RMEMHigh
parameters Rcell_0_0_11_13 = RMEMHigh
parameters Rcell_0_0_11_14 = RMEMLow
parameters Rcell_0_0_11_15 = RMEMHigh
parameters Rcell_0_0_12_0 = RMEMLow
parameters Rcell_0_0_12_1 = RMEMLow
parameters Rcell_0_0_12_2 = RMEMHigh
parameters Rcell_0_0_12_3 = RMEMHigh
parameters Rcell_0_0_12_4 = RMEMLow
parameters Rcell_0_0_12_5 = RMEMHigh
parameters Rcell_0_0_12_6 = RMEMHigh
parameters Rcell_0_0_12_7 = RMEMLow
parameters Rcell_0_0_12_8 = RMEMHigh
parameters Rcell_0_0_12_9 = RMEMHigh
parameters Rcell_0_0_12_10 = RMEMLow
parameters Rcell_0_0_12_11 = RMEMHigh
parameters Rcell_0_0_12_12 = RMEMLow
parameters Rcell_0_0_12_13 = RMEMHigh
parameters Rcell_0_0_12_14 = RMEMHigh
parameters Rcell_0_0_12_15 = RMEMLow
parameters Rcell_0_0_13_0 = RMEMHigh
parameters Rcell_0_0_13_1 = RMEMLow
parameters Rcell_0_0_13_2 = RMEMLow
parameters Rcell_0_0_13_3 = RMEMHigh
parameters Rcell_0_0_13_4 = RMEMHigh
parameters Rcell_0_0_13_5 = RMEMHigh
parameters Rcell_0_0_13_6 = RMEMLow
parameters Rcell_0_0_13_7 = RMEMHigh
parameters Rcell_0_0_13_8 = RMEMHigh
parameters Rcell_0_0_13_9 = RMEMHigh
parameters Rcell_0_0_13_10 = RMEMHigh
parameters Rcell_0_0_13_11 = RMEMHigh
parameters Rcell_0_0_13_12 = RMEMLow
parameters Rcell_0_0_13_13 = RMEMHigh
parameters Rcell_0_0_13_14 = RMEMLow
parameters Rcell_0_0_13_15 = RMEMHigh
parameters Rcell_0_0_14_0 = RMEMLow
parameters Rcell_0_0_14_1 = RMEMHigh
parameters Rcell_0_0_14_2 = RMEMLow
parameters Rcell_0_0_14_3 = RMEMHigh
parameters Rcell_0_0_14_4 = RMEMHigh
parameters Rcell_0_0_14_5 = RMEMLow
parameters Rcell_0_0_14_6 = RMEMHigh
parameters Rcell_0_0_14_7 = RMEMLow
parameters Rcell_0_0_14_8 = RMEMHigh
parameters Rcell_0_0_14_9 = RMEMHigh
parameters Rcell_0_0_14_10 = RMEMHigh
parameters Rcell_0_0_14_11 = RMEMLow
parameters Rcell_0_0_14_12 = RMEMLow
parameters Rcell_0_0_14_13 = RMEMHigh
parameters Rcell_0_0_14_14 = RMEMLow
parameters Rcell_0_0_14_15 = RMEMLow
parameters Rcell_0_0_15_0 = RMEMLow
parameters Rcell_0_0_15_1 = RMEMLow
parameters Rcell_0_0_15_2 = RMEMHigh
parameters Rcell_0_0_15_3 = RMEMLow
parameters Rcell_0_0_15_4 = RMEMHigh
parameters Rcell_0_0_15_5 = RMEMLow
parameters Rcell_0_0_15_6 = RMEMHigh
parameters Rcell_0_0_15_7 = RMEMHigh
parameters Rcell_0_0_15_8 = RMEMLow
parameters Rcell_0_0_15_9 = RMEMLow
parameters Rcell_0_0_15_10 = RMEMHigh
parameters Rcell_0_0_15_11 = RMEMLow
parameters Rcell_0_0_15_12 = RMEMLow
parameters Rcell_0_0_15_13 = RMEMHigh
parameters Rcell_0_0_15_14 = RMEMHigh
parameters Rcell_0_0_15_15 = RMEMHigh
parameters Rcell_0_1_0_0 = RMEMLow
parameters Rcell_0_1_0_1 = RMEMHigh
parameters Rcell_0_1_0_2 = RMEMLow
parameters Rcell_0_1_0_3 = RMEMLow
parameters Rcell_0_1_0_4 = RMEMLow
parameters Rcell_0_1_0_5 = RMEMLow
parameters Rcell_0_1_0_6 = RMEMHigh
parameters Rcell_0_1_0_7 = RMEMLow
parameters Rcell_0_1_0_8 = RMEMLow
parameters Rcell_0_1_0_9 = RMEMLow
parameters Rcell_0_1_0_10 = RMEMLow
parameters Rcell_0_1_0_11 = RMEMLow
parameters Rcell_0_1_0_12 = RMEMHigh
parameters Rcell_0_1_0_13 = RMEMHigh
parameters Rcell_0_1_0_14 = RMEMLow
parameters Rcell_0_1_0_15 = RMEMHigh
parameters Rcell_0_1_1_0 = RMEMLow
parameters Rcell_0_1_1_1 = RMEMHigh
parameters Rcell_0_1_1_2 = RMEMHigh
parameters Rcell_0_1_1_3 = RMEMHigh
parameters Rcell_0_1_1_4 = RMEMHigh
parameters Rcell_0_1_1_5 = RMEMHigh
parameters Rcell_0_1_1_6 = RMEMLow
parameters Rcell_0_1_1_7 = RMEMHigh
parameters Rcell_0_1_1_8 = RMEMLow
parameters Rcell_0_1_1_9 = RMEMLow
parameters Rcell_0_1_1_10 = RMEMHigh
parameters Rcell_0_1_1_11 = RMEMLow
parameters Rcell_0_1_1_12 = RMEMHigh
parameters Rcell_0_1_1_13 = RMEMLow
parameters Rcell_0_1_1_14 = RMEMLow
parameters Rcell_0_1_1_15 = RMEMHigh
parameters Rcell_0_1_2_0 = RMEMHigh
parameters Rcell_0_1_2_1 = RMEMLow
parameters Rcell_0_1_2_2 = RMEMLow
parameters Rcell_0_1_2_3 = RMEMHigh
parameters Rcell_0_1_2_4 = RMEMHigh
parameters Rcell_0_1_2_5 = RMEMHigh
parameters Rcell_0_1_2_6 = RMEMLow
parameters Rcell_0_1_2_7 = RMEMHigh
parameters Rcell_0_1_2_8 = RMEMHigh
parameters Rcell_0_1_2_9 = RMEMHigh
parameters Rcell_0_1_2_10 = RMEMLow
parameters Rcell_0_1_2_11 = RMEMHigh
parameters Rcell_0_1_2_12 = RMEMHigh
parameters Rcell_0_1_2_13 = RMEMHigh
parameters Rcell_0_1_2_14 = RMEMHigh
parameters Rcell_0_1_2_15 = RMEMHigh
parameters Rcell_0_1_3_0 = RMEMLow
parameters Rcell_0_1_3_1 = RMEMLow
parameters Rcell_0_1_3_2 = RMEMLow
parameters Rcell_0_1_3_3 = RMEMHigh
parameters Rcell_0_1_3_4 = RMEMLow
parameters Rcell_0_1_3_5 = RMEMHigh
parameters Rcell_0_1_3_6 = RMEMLow
parameters Rcell_0_1_3_7 = RMEMLow
parameters Rcell_0_1_3_8 = RMEMHigh
parameters Rcell_0_1_3_9 = RMEMLow
parameters Rcell_0_1_3_10 = RMEMLow
parameters Rcell_0_1_3_11 = RMEMHigh
parameters Rcell_0_1_3_12 = RMEMHigh
parameters Rcell_0_1_3_13 = RMEMLow
parameters Rcell_0_1_3_14 = RMEMLow
parameters Rcell_0_1_3_15 = RMEMLow
parameters Rcell_0_1_4_0 = RMEMLow
parameters Rcell_0_1_4_1 = RMEMHigh
parameters Rcell_0_1_4_2 = RMEMLow
parameters Rcell_0_1_4_3 = RMEMLow
parameters Rcell_0_1_4_4 = RMEMLow
parameters Rcell_0_1_4_5 = RMEMLow
parameters Rcell_0_1_4_6 = RMEMLow
parameters Rcell_0_1_4_7 = RMEMHigh
parameters Rcell_0_1_4_8 = RMEMLow
parameters Rcell_0_1_4_9 = RMEMLow
parameters Rcell_0_1_4_10 = RMEMHigh
parameters Rcell_0_1_4_11 = RMEMHigh
parameters Rcell_0_1_4_12 = RMEMLow
parameters Rcell_0_1_4_13 = RMEMLow
parameters Rcell_0_1_4_14 = RMEMLow
parameters Rcell_0_1_4_15 = RMEMLow
parameters Rcell_0_1_5_0 = RMEMLow
parameters Rcell_0_1_5_1 = RMEMLow
parameters Rcell_0_1_5_2 = RMEMLow
parameters Rcell_0_1_5_3 = RMEMLow
parameters Rcell_0_1_5_4 = RMEMLow
parameters Rcell_0_1_5_5 = RMEMHigh
parameters Rcell_0_1_5_6 = RMEMHigh
parameters Rcell_0_1_5_7 = RMEMHigh
parameters Rcell_0_1_5_8 = RMEMHigh
parameters Rcell_0_1_5_9 = RMEMHigh
parameters Rcell_0_1_5_10 = RMEMHigh
parameters Rcell_0_1_5_11 = RMEMHigh
parameters Rcell_0_1_5_12 = RMEMHigh
parameters Rcell_0_1_5_13 = RMEMHigh
parameters Rcell_0_1_5_14 = RMEMLow
parameters Rcell_0_1_5_15 = RMEMHigh
parameters Rcell_0_1_6_0 = RMEMHigh
parameters Rcell_0_1_6_1 = RMEMLow
parameters Rcell_0_1_6_2 = RMEMLow
parameters Rcell_0_1_6_3 = RMEMHigh
parameters Rcell_0_1_6_4 = RMEMLow
parameters Rcell_0_1_6_5 = RMEMHigh
parameters Rcell_0_1_6_6 = RMEMLow
parameters Rcell_0_1_6_7 = RMEMHigh
parameters Rcell_0_1_6_8 = RMEMHigh
parameters Rcell_0_1_6_9 = RMEMHigh
parameters Rcell_0_1_6_10 = RMEMLow
parameters Rcell_0_1_6_11 = RMEMLow
parameters Rcell_0_1_6_12 = RMEMLow
parameters Rcell_0_1_6_13 = RMEMHigh
parameters Rcell_0_1_6_14 = RMEMLow
parameters Rcell_0_1_6_15 = RMEMLow
parameters Rcell_0_1_7_0 = RMEMHigh
parameters Rcell_0_1_7_1 = RMEMLow
parameters Rcell_0_1_7_2 = RMEMLow
parameters Rcell_0_1_7_3 = RMEMHigh
parameters Rcell_0_1_7_4 = RMEMLow
parameters Rcell_0_1_7_5 = RMEMLow
parameters Rcell_0_1_7_6 = RMEMHigh
parameters Rcell_0_1_7_7 = RMEMHigh
parameters Rcell_0_1_7_8 = RMEMLow
parameters Rcell_0_1_7_9 = RMEMHigh
parameters Rcell_0_1_7_10 = RMEMHigh
parameters Rcell_0_1_7_11 = RMEMLow
parameters Rcell_0_1_7_12 = RMEMHigh
parameters Rcell_0_1_7_13 = RMEMHigh
parameters Rcell_0_1_7_14 = RMEMLow
parameters Rcell_0_1_7_15 = RMEMLow
parameters Rcell_0_1_8_0 = RMEMHigh
parameters Rcell_0_1_8_1 = RMEMLow
parameters Rcell_0_1_8_2 = RMEMHigh
parameters Rcell_0_1_8_3 = RMEMHigh
parameters Rcell_0_1_8_4 = RMEMHigh
parameters Rcell_0_1_8_5 = RMEMLow
parameters Rcell_0_1_8_6 = RMEMHigh
parameters Rcell_0_1_8_7 = RMEMLow
parameters Rcell_0_1_8_8 = RMEMHigh
parameters Rcell_0_1_8_9 = RMEMLow
parameters Rcell_0_1_8_10 = RMEMLow
parameters Rcell_0_1_8_11 = RMEMHigh
parameters Rcell_0_1_8_12 = RMEMLow
parameters Rcell_0_1_8_13 = RMEMLow
parameters Rcell_0_1_8_14 = RMEMLow
parameters Rcell_0_1_8_15 = RMEMLow
parameters Rcell_0_1_9_0 = RMEMLow
parameters Rcell_0_1_9_1 = RMEMHigh
parameters Rcell_0_1_9_2 = RMEMLow
parameters Rcell_0_1_9_3 = RMEMHigh
parameters Rcell_0_1_9_4 = RMEMHigh
parameters Rcell_0_1_9_5 = RMEMLow
parameters Rcell_0_1_9_6 = RMEMHigh
parameters Rcell_0_1_9_7 = RMEMLow
parameters Rcell_0_1_9_8 = RMEMHigh
parameters Rcell_0_1_9_9 = RMEMLow
parameters Rcell_0_1_9_10 = RMEMLow
parameters Rcell_0_1_9_11 = RMEMHigh
parameters Rcell_0_1_9_12 = RMEMHigh
parameters Rcell_0_1_9_13 = RMEMHigh
parameters Rcell_0_1_9_14 = RMEMHigh
parameters Rcell_0_1_9_15 = RMEMHigh
parameters Rcell_0_1_10_0 = RMEMHigh
parameters Rcell_0_1_10_1 = RMEMLow
parameters Rcell_0_1_10_2 = RMEMLow
parameters Rcell_0_1_10_3 = RMEMHigh
parameters Rcell_0_1_10_4 = RMEMHigh
parameters Rcell_0_1_10_5 = RMEMLow
parameters Rcell_0_1_10_6 = RMEMHigh
parameters Rcell_0_1_10_7 = RMEMLow
parameters Rcell_0_1_10_8 = RMEMLow
parameters Rcell_0_1_10_9 = RMEMLow
parameters Rcell_0_1_10_10 = RMEMLow
parameters Rcell_0_1_10_11 = RMEMHigh
parameters Rcell_0_1_10_12 = RMEMLow
parameters Rcell_0_1_10_13 = RMEMLow
parameters Rcell_0_1_10_14 = RMEMHigh
parameters Rcell_0_1_10_15 = RMEMLow
parameters Rcell_0_1_11_0 = RMEMLow
parameters Rcell_0_1_11_1 = RMEMLow
parameters Rcell_0_1_11_2 = RMEMHigh
parameters Rcell_0_1_11_3 = RMEMLow
parameters Rcell_0_1_11_4 = RMEMHigh
parameters Rcell_0_1_11_5 = RMEMHigh
parameters Rcell_0_1_11_6 = RMEMHigh
parameters Rcell_0_1_11_7 = RMEMLow
parameters Rcell_0_1_11_8 = RMEMHigh
parameters Rcell_0_1_11_9 = RMEMHigh
parameters Rcell_0_1_11_10 = RMEMHigh
parameters Rcell_0_1_11_11 = RMEMHigh
parameters Rcell_0_1_11_12 = RMEMLow
parameters Rcell_0_1_11_13 = RMEMHigh
parameters Rcell_0_1_11_14 = RMEMLow
parameters Rcell_0_1_11_15 = RMEMHigh
parameters Rcell_0_1_12_0 = RMEMHigh
parameters Rcell_0_1_12_1 = RMEMLow
parameters Rcell_0_1_12_2 = RMEMHigh
parameters Rcell_0_1_12_3 = RMEMHigh
parameters Rcell_0_1_12_4 = RMEMLow
parameters Rcell_0_1_12_5 = RMEMHigh
parameters Rcell_0_1_12_6 = RMEMLow
parameters Rcell_0_1_12_7 = RMEMHigh
parameters Rcell_0_1_12_8 = RMEMLow
parameters Rcell_0_1_12_9 = RMEMLow
parameters Rcell_0_1_12_10 = RMEMLow
parameters Rcell_0_1_12_11 = RMEMLow
parameters Rcell_0_1_12_12 = RMEMHigh
parameters Rcell_0_1_12_13 = RMEMLow
parameters Rcell_0_1_12_14 = RMEMHigh
parameters Rcell_0_1_12_15 = RMEMLow
parameters Rcell_0_1_13_0 = RMEMHigh
parameters Rcell_0_1_13_1 = RMEMHigh
parameters Rcell_0_1_13_2 = RMEMHigh
parameters Rcell_0_1_13_3 = RMEMLow
parameters Rcell_0_1_13_4 = RMEMHigh
parameters Rcell_0_1_13_5 = RMEMHigh
parameters Rcell_0_1_13_6 = RMEMHigh
parameters Rcell_0_1_13_7 = RMEMLow
parameters Rcell_0_1_13_8 = RMEMLow
parameters Rcell_0_1_13_9 = RMEMHigh
parameters Rcell_0_1_13_10 = RMEMHigh
parameters Rcell_0_1_13_11 = RMEMHigh
parameters Rcell_0_1_13_12 = RMEMLow
parameters Rcell_0_1_13_13 = RMEMLow
parameters Rcell_0_1_13_14 = RMEMHigh
parameters Rcell_0_1_13_15 = RMEMLow
parameters Rcell_0_1_14_0 = RMEMHigh
parameters Rcell_0_1_14_1 = RMEMHigh
parameters Rcell_0_1_14_2 = RMEMLow
parameters Rcell_0_1_14_3 = RMEMLow
parameters Rcell_0_1_14_4 = RMEMHigh
parameters Rcell_0_1_14_5 = RMEMLow
parameters Rcell_0_1_14_6 = RMEMHigh
parameters Rcell_0_1_14_7 = RMEMHigh
parameters Rcell_0_1_14_8 = RMEMLow
parameters Rcell_0_1_14_9 = RMEMLow
parameters Rcell_0_1_14_10 = RMEMHigh
parameters Rcell_0_1_14_11 = RMEMLow
parameters Rcell_0_1_14_12 = RMEMLow
parameters Rcell_0_1_14_13 = RMEMLow
parameters Rcell_0_1_14_14 = RMEMLow
parameters Rcell_0_1_14_15 = RMEMHigh
parameters Rcell_0_1_15_0 = RMEMLow
parameters Rcell_0_1_15_1 = RMEMLow
parameters Rcell_0_1_15_2 = RMEMLow
parameters Rcell_0_1_15_3 = RMEMLow
parameters Rcell_0_1_15_4 = RMEMLow
parameters Rcell_0_1_15_5 = RMEMLow
parameters Rcell_0_1_15_6 = RMEMHigh
parameters Rcell_0_1_15_7 = RMEMLow
parameters Rcell_0_1_15_8 = RMEMHigh
parameters Rcell_0_1_15_9 = RMEMLow
parameters Rcell_0_1_15_10 = RMEMLow
parameters Rcell_0_1_15_11 = RMEMLow
parameters Rcell_0_1_15_12 = RMEMHigh
parameters Rcell_0_1_15_13 = RMEMHigh
parameters Rcell_0_1_15_14 = RMEMHigh
parameters Rcell_0_1_15_15 = RMEMHigh

parameters Rref_0 = RMEMHigh
parameters Rref_1 = RMEMHigh
parameters Rref_2 = RMEMHigh
parameters Rref_3 = RMEMHigh
parameters Rref_4 = RMEMHigh
parameters Rref_5 = RMEMHigh
parameters Rref_6 = RMEMHigh
parameters Rref_7 = RMEMHigh
parameters Rref_8 = RMEMLow
parameters Rref_9 = RMEMLow
parameters Rref_10 = RMEMLow
parameters Rref_11 = RMEMLow
parameters Rref_12 = RMEMLow
parameters Rref_13 = RMEMLow
parameters Rref_14 = RMEMLow
parameters Rref_15 = RMEMLow

