
simulator lang=spectre

parameters PWmin = 100n                         //MinimalTransistorWidth
parameters PLmin = 45n                          //MinimalTransistorLenght
parameters WChargeBL = 1e-07         //BitLineChargerWidth(perBL)
parameters WBias = 1.5e-07
parameters WDischargeBL = 1.8e-07   //BitLineDischargerWidth(perBL)
parameters WDischargeSL = 2.25e-07   //SourceLineDischargerWidth(perBL)
parameters Cpar = 0.18e-15                      //ParasiticCapacitor(perCell)
parameters PWn = 1e-07                     //DifferentialNpairWidth(perSA)
parameters PWp = 1e-07                     //DifferentialPpairWidth(perSA)
parameters PWpenable = 1e-07         //SenseAmpEnablePWidth(perSA)
parameters PWnenable = 1e-07         //SenseAmpEnableNWidth(perSA)
parameters PWmuxLB = 2e-07                //PassgateWidth(perMuxLB)
parameters PWmuxGB = 2e-07                //PassgateWidth(perMuxGB)

parameters numberofruns = 1
parameters enableMismatch = 0   //Mismatch
parameters simlength = 3e-08


parameters RMEMHigh = 32500;
parameters RMEMLow = 7500;

parameters Rcell_0_0_0_0 = RMEMLow
parameters Rcell_0_0_0_1 = RMEMLow
parameters Rcell_0_0_0_2 = RMEMLow
parameters Rcell_0_0_0_3 = RMEMLow
parameters Rcell_0_0_0_4 = RMEMHigh
parameters Rcell_0_0_0_5 = RMEMLow
parameters Rcell_0_0_0_6 = RMEMHigh
parameters Rcell_0_0_0_7 = RMEMLow
parameters Rcell_0_0_0_8 = RMEMLow
parameters Rcell_0_0_0_9 = RMEMHigh
parameters Rcell_0_0_0_10 = RMEMLow
parameters Rcell_0_0_0_11 = RMEMHigh
parameters Rcell_0_0_0_12 = RMEMLow
parameters Rcell_0_0_0_13 = RMEMHigh
parameters Rcell_0_0_0_14 = RMEMLow
parameters Rcell_0_0_0_15 = RMEMHigh
parameters Rcell_0_0_0_16 = RMEMLow
parameters Rcell_0_0_0_17 = RMEMHigh
parameters Rcell_0_0_0_18 = RMEMLow
parameters Rcell_0_0_0_19 = RMEMLow
parameters Rcell_0_0_0_20 = RMEMLow
parameters Rcell_0_0_0_21 = RMEMHigh
parameters Rcell_0_0_0_22 = RMEMLow
parameters Rcell_0_0_0_23 = RMEMLow
parameters Rcell_0_0_0_24 = RMEMHigh
parameters Rcell_0_0_0_25 = RMEMHigh
parameters Rcell_0_0_0_26 = RMEMLow
parameters Rcell_0_0_0_27 = RMEMHigh
parameters Rcell_0_0_0_28 = RMEMHigh
parameters Rcell_0_0_0_29 = RMEMLow
parameters Rcell_0_0_0_30 = RMEMHigh
parameters Rcell_0_0_0_31 = RMEMLow
parameters Rcell_0_0_0_32 = RMEMLow
parameters Rcell_0_0_0_33 = RMEMHigh
parameters Rcell_0_0_0_34 = RMEMHigh
parameters Rcell_0_0_0_35 = RMEMLow
parameters Rcell_0_0_0_36 = RMEMHigh
parameters Rcell_0_0_0_37 = RMEMHigh
parameters Rcell_0_0_0_38 = RMEMLow
parameters Rcell_0_0_0_39 = RMEMLow
parameters Rcell_0_0_0_40 = RMEMLow
parameters Rcell_0_0_0_41 = RMEMLow
parameters Rcell_0_0_0_42 = RMEMHigh
parameters Rcell_0_0_0_43 = RMEMLow
parameters Rcell_0_0_0_44 = RMEMHigh
parameters Rcell_0_0_0_45 = RMEMHigh
parameters Rcell_0_0_0_46 = RMEMHigh
parameters Rcell_0_0_0_47 = RMEMLow
parameters Rcell_0_0_0_48 = RMEMHigh
parameters Rcell_0_0_0_49 = RMEMHigh
parameters Rcell_0_0_0_50 = RMEMLow
parameters Rcell_0_0_0_51 = RMEMLow
parameters Rcell_0_0_0_52 = RMEMLow
parameters Rcell_0_0_0_53 = RMEMHigh
parameters Rcell_0_0_0_54 = RMEMHigh
parameters Rcell_0_0_0_55 = RMEMLow
parameters Rcell_0_0_0_56 = RMEMLow
parameters Rcell_0_0_0_57 = RMEMHigh
parameters Rcell_0_0_0_58 = RMEMHigh
parameters Rcell_0_0_0_59 = RMEMLow
parameters Rcell_0_0_0_60 = RMEMLow
parameters Rcell_0_0_0_61 = RMEMHigh
parameters Rcell_0_0_0_62 = RMEMHigh
parameters Rcell_0_0_0_63 = RMEMHigh
parameters Rcell_0_0_1_0 = RMEMHigh
parameters Rcell_0_0_1_1 = RMEMLow
parameters Rcell_0_0_1_2 = RMEMHigh
parameters Rcell_0_0_1_3 = RMEMHigh
parameters Rcell_0_0_1_4 = RMEMLow
parameters Rcell_0_0_1_5 = RMEMHigh
parameters Rcell_0_0_1_6 = RMEMHigh
parameters Rcell_0_0_1_7 = RMEMLow
parameters Rcell_0_0_1_8 = RMEMHigh
parameters Rcell_0_0_1_9 = RMEMHigh
parameters Rcell_0_0_1_10 = RMEMLow
parameters Rcell_0_0_1_11 = RMEMHigh
parameters Rcell_0_0_1_12 = RMEMHigh
parameters Rcell_0_0_1_13 = RMEMHigh
parameters Rcell_0_0_1_14 = RMEMHigh
parameters Rcell_0_0_1_15 = RMEMLow
parameters Rcell_0_0_1_16 = RMEMHigh
parameters Rcell_0_0_1_17 = RMEMLow
parameters Rcell_0_0_1_18 = RMEMHigh
parameters Rcell_0_0_1_19 = RMEMHigh
parameters Rcell_0_0_1_20 = RMEMLow
parameters Rcell_0_0_1_21 = RMEMLow
parameters Rcell_0_0_1_22 = RMEMHigh
parameters Rcell_0_0_1_23 = RMEMLow
parameters Rcell_0_0_1_24 = RMEMLow
parameters Rcell_0_0_1_25 = RMEMHigh
parameters Rcell_0_0_1_26 = RMEMLow
parameters Rcell_0_0_1_27 = RMEMLow
parameters Rcell_0_0_1_28 = RMEMLow
parameters Rcell_0_0_1_29 = RMEMHigh
parameters Rcell_0_0_1_30 = RMEMHigh
parameters Rcell_0_0_1_31 = RMEMHigh
parameters Rcell_0_0_1_32 = RMEMLow
parameters Rcell_0_0_1_33 = RMEMHigh
parameters Rcell_0_0_1_34 = RMEMLow
parameters Rcell_0_0_1_35 = RMEMHigh
parameters Rcell_0_0_1_36 = RMEMHigh
parameters Rcell_0_0_1_37 = RMEMLow
parameters Rcell_0_0_1_38 = RMEMHigh
parameters Rcell_0_0_1_39 = RMEMHigh
parameters Rcell_0_0_1_40 = RMEMHigh
parameters Rcell_0_0_1_41 = RMEMLow
parameters Rcell_0_0_1_42 = RMEMLow
parameters Rcell_0_0_1_43 = RMEMHigh
parameters Rcell_0_0_1_44 = RMEMLow
parameters Rcell_0_0_1_45 = RMEMLow
parameters Rcell_0_0_1_46 = RMEMHigh
parameters Rcell_0_0_1_47 = RMEMLow
parameters Rcell_0_0_1_48 = RMEMHigh
parameters Rcell_0_0_1_49 = RMEMHigh
parameters Rcell_0_0_1_50 = RMEMHigh
parameters Rcell_0_0_1_51 = RMEMLow
parameters Rcell_0_0_1_52 = RMEMHigh
parameters Rcell_0_0_1_53 = RMEMLow
parameters Rcell_0_0_1_54 = RMEMHigh
parameters Rcell_0_0_1_55 = RMEMHigh
parameters Rcell_0_0_1_56 = RMEMLow
parameters Rcell_0_0_1_57 = RMEMHigh
parameters Rcell_0_0_1_58 = RMEMHigh
parameters Rcell_0_0_1_59 = RMEMLow
parameters Rcell_0_0_1_60 = RMEMLow
parameters Rcell_0_0_1_61 = RMEMHigh
parameters Rcell_0_0_1_62 = RMEMLow
parameters Rcell_0_0_1_63 = RMEMLow
parameters Rcell_0_0_2_0 = RMEMLow
parameters Rcell_0_0_2_1 = RMEMHigh
parameters Rcell_0_0_2_2 = RMEMHigh
parameters Rcell_0_0_2_3 = RMEMLow
parameters Rcell_0_0_2_4 = RMEMHigh
parameters Rcell_0_0_2_5 = RMEMHigh
parameters Rcell_0_0_2_6 = RMEMLow
parameters Rcell_0_0_2_7 = RMEMLow
parameters Rcell_0_0_2_8 = RMEMLow
parameters Rcell_0_0_2_9 = RMEMHigh
parameters Rcell_0_0_2_10 = RMEMLow
parameters Rcell_0_0_2_11 = RMEMHigh
parameters Rcell_0_0_2_12 = RMEMLow
parameters Rcell_0_0_2_13 = RMEMLow
parameters Rcell_0_0_2_14 = RMEMHigh
parameters Rcell_0_0_2_15 = RMEMHigh
parameters Rcell_0_0_2_16 = RMEMLow
parameters Rcell_0_0_2_17 = RMEMHigh
parameters Rcell_0_0_2_18 = RMEMLow
parameters Rcell_0_0_2_19 = RMEMHigh
parameters Rcell_0_0_2_20 = RMEMHigh
parameters Rcell_0_0_2_21 = RMEMHigh
parameters Rcell_0_0_2_22 = RMEMHigh
parameters Rcell_0_0_2_23 = RMEMHigh
parameters Rcell_0_0_2_24 = RMEMLow
parameters Rcell_0_0_2_25 = RMEMHigh
parameters Rcell_0_0_2_26 = RMEMHigh
parameters Rcell_0_0_2_27 = RMEMHigh
parameters Rcell_0_0_2_28 = RMEMLow
parameters Rcell_0_0_2_29 = RMEMLow
parameters Rcell_0_0_2_30 = RMEMLow
parameters Rcell_0_0_2_31 = RMEMLow
parameters Rcell_0_0_2_32 = RMEMLow
parameters Rcell_0_0_2_33 = RMEMLow
parameters Rcell_0_0_2_34 = RMEMHigh
parameters Rcell_0_0_2_35 = RMEMHigh
parameters Rcell_0_0_2_36 = RMEMLow
parameters Rcell_0_0_2_37 = RMEMHigh
parameters Rcell_0_0_2_38 = RMEMHigh
parameters Rcell_0_0_2_39 = RMEMHigh
parameters Rcell_0_0_2_40 = RMEMHigh
parameters Rcell_0_0_2_41 = RMEMHigh
parameters Rcell_0_0_2_42 = RMEMLow
parameters Rcell_0_0_2_43 = RMEMHigh
parameters Rcell_0_0_2_44 = RMEMLow
parameters Rcell_0_0_2_45 = RMEMLow
parameters Rcell_0_0_2_46 = RMEMHigh
parameters Rcell_0_0_2_47 = RMEMLow
parameters Rcell_0_0_2_48 = RMEMLow
parameters Rcell_0_0_2_49 = RMEMLow
parameters Rcell_0_0_2_50 = RMEMHigh
parameters Rcell_0_0_2_51 = RMEMHigh
parameters Rcell_0_0_2_52 = RMEMHigh
parameters Rcell_0_0_2_53 = RMEMHigh
parameters Rcell_0_0_2_54 = RMEMHigh
parameters Rcell_0_0_2_55 = RMEMHigh
parameters Rcell_0_0_2_56 = RMEMLow
parameters Rcell_0_0_2_57 = RMEMHigh
parameters Rcell_0_0_2_58 = RMEMHigh
parameters Rcell_0_0_2_59 = RMEMLow
parameters Rcell_0_0_2_60 = RMEMLow
parameters Rcell_0_0_2_61 = RMEMHigh
parameters Rcell_0_0_2_62 = RMEMLow
parameters Rcell_0_0_2_63 = RMEMHigh
parameters Rcell_0_0_3_0 = RMEMLow
parameters Rcell_0_0_3_1 = RMEMHigh
parameters Rcell_0_0_3_2 = RMEMLow
parameters Rcell_0_0_3_3 = RMEMHigh
parameters Rcell_0_0_3_4 = RMEMHigh
parameters Rcell_0_0_3_5 = RMEMLow
parameters Rcell_0_0_3_6 = RMEMLow
parameters Rcell_0_0_3_7 = RMEMHigh
parameters Rcell_0_0_3_8 = RMEMLow
parameters Rcell_0_0_3_9 = RMEMLow
parameters Rcell_0_0_3_10 = RMEMHigh
parameters Rcell_0_0_3_11 = RMEMLow
parameters Rcell_0_0_3_12 = RMEMHigh
parameters Rcell_0_0_3_13 = RMEMHigh
parameters Rcell_0_0_3_14 = RMEMLow
parameters Rcell_0_0_3_15 = RMEMHigh
parameters Rcell_0_0_3_16 = RMEMHigh
parameters Rcell_0_0_3_17 = RMEMHigh
parameters Rcell_0_0_3_18 = RMEMHigh
parameters Rcell_0_0_3_19 = RMEMHigh
parameters Rcell_0_0_3_20 = RMEMHigh
parameters Rcell_0_0_3_21 = RMEMLow
parameters Rcell_0_0_3_22 = RMEMLow
parameters Rcell_0_0_3_23 = RMEMLow
parameters Rcell_0_0_3_24 = RMEMLow
parameters Rcell_0_0_3_25 = RMEMLow
parameters Rcell_0_0_3_26 = RMEMHigh
parameters Rcell_0_0_3_27 = RMEMHigh
parameters Rcell_0_0_3_28 = RMEMHigh
parameters Rcell_0_0_3_29 = RMEMHigh
parameters Rcell_0_0_3_30 = RMEMLow
parameters Rcell_0_0_3_31 = RMEMLow
parameters Rcell_0_0_3_32 = RMEMLow
parameters Rcell_0_0_3_33 = RMEMHigh
parameters Rcell_0_0_3_34 = RMEMLow
parameters Rcell_0_0_3_35 = RMEMHigh
parameters Rcell_0_0_3_36 = RMEMHigh
parameters Rcell_0_0_3_37 = RMEMHigh
parameters Rcell_0_0_3_38 = RMEMLow
parameters Rcell_0_0_3_39 = RMEMHigh
parameters Rcell_0_0_3_40 = RMEMLow
parameters Rcell_0_0_3_41 = RMEMLow
parameters Rcell_0_0_3_42 = RMEMHigh
parameters Rcell_0_0_3_43 = RMEMHigh
parameters Rcell_0_0_3_44 = RMEMLow
parameters Rcell_0_0_3_45 = RMEMHigh
parameters Rcell_0_0_3_46 = RMEMLow
parameters Rcell_0_0_3_47 = RMEMLow
parameters Rcell_0_0_3_48 = RMEMLow
parameters Rcell_0_0_3_49 = RMEMLow
parameters Rcell_0_0_3_50 = RMEMLow
parameters Rcell_0_0_3_51 = RMEMHigh
parameters Rcell_0_0_3_52 = RMEMLow
parameters Rcell_0_0_3_53 = RMEMHigh
parameters Rcell_0_0_3_54 = RMEMLow
parameters Rcell_0_0_3_55 = RMEMLow
parameters Rcell_0_0_3_56 = RMEMHigh
parameters Rcell_0_0_3_57 = RMEMLow
parameters Rcell_0_0_3_58 = RMEMLow
parameters Rcell_0_0_3_59 = RMEMHigh
parameters Rcell_0_0_3_60 = RMEMHigh
parameters Rcell_0_0_3_61 = RMEMHigh
parameters Rcell_0_0_3_62 = RMEMHigh
parameters Rcell_0_0_3_63 = RMEMLow
parameters Rcell_0_1_0_0 = RMEMHigh
parameters Rcell_0_1_0_1 = RMEMLow
parameters Rcell_0_1_0_2 = RMEMHigh
parameters Rcell_0_1_0_3 = RMEMLow
parameters Rcell_0_1_0_4 = RMEMLow
parameters Rcell_0_1_0_5 = RMEMHigh
parameters Rcell_0_1_0_6 = RMEMHigh
parameters Rcell_0_1_0_7 = RMEMLow
parameters Rcell_0_1_0_8 = RMEMLow
parameters Rcell_0_1_0_9 = RMEMHigh
parameters Rcell_0_1_0_10 = RMEMLow
parameters Rcell_0_1_0_11 = RMEMLow
parameters Rcell_0_1_0_12 = RMEMHigh
parameters Rcell_0_1_0_13 = RMEMHigh
parameters Rcell_0_1_0_14 = RMEMHigh
parameters Rcell_0_1_0_15 = RMEMHigh
parameters Rcell_0_1_0_16 = RMEMHigh
parameters Rcell_0_1_0_17 = RMEMHigh
parameters Rcell_0_1_0_18 = RMEMHigh
parameters Rcell_0_1_0_19 = RMEMHigh
parameters Rcell_0_1_0_20 = RMEMHigh
parameters Rcell_0_1_0_21 = RMEMLow
parameters Rcell_0_1_0_22 = RMEMHigh
parameters Rcell_0_1_0_23 = RMEMLow
parameters Rcell_0_1_0_24 = RMEMLow
parameters Rcell_0_1_0_25 = RMEMLow
parameters Rcell_0_1_0_26 = RMEMHigh
parameters Rcell_0_1_0_27 = RMEMLow
parameters Rcell_0_1_0_28 = RMEMLow
parameters Rcell_0_1_0_29 = RMEMHigh
parameters Rcell_0_1_0_30 = RMEMHigh
parameters Rcell_0_1_0_31 = RMEMLow
parameters Rcell_0_1_0_32 = RMEMLow
parameters Rcell_0_1_0_33 = RMEMLow
parameters Rcell_0_1_0_34 = RMEMLow
parameters Rcell_0_1_0_35 = RMEMHigh
parameters Rcell_0_1_0_36 = RMEMHigh
parameters Rcell_0_1_0_37 = RMEMHigh
parameters Rcell_0_1_0_38 = RMEMHigh
parameters Rcell_0_1_0_39 = RMEMLow
parameters Rcell_0_1_0_40 = RMEMHigh
parameters Rcell_0_1_0_41 = RMEMLow
parameters Rcell_0_1_0_42 = RMEMHigh
parameters Rcell_0_1_0_43 = RMEMHigh
parameters Rcell_0_1_0_44 = RMEMLow
parameters Rcell_0_1_0_45 = RMEMLow
parameters Rcell_0_1_0_46 = RMEMLow
parameters Rcell_0_1_0_47 = RMEMHigh
parameters Rcell_0_1_0_48 = RMEMLow
parameters Rcell_0_1_0_49 = RMEMLow
parameters Rcell_0_1_0_50 = RMEMLow
parameters Rcell_0_1_0_51 = RMEMLow
parameters Rcell_0_1_0_52 = RMEMLow
parameters Rcell_0_1_0_53 = RMEMHigh
parameters Rcell_0_1_0_54 = RMEMLow
parameters Rcell_0_1_0_55 = RMEMHigh
parameters Rcell_0_1_0_56 = RMEMLow
parameters Rcell_0_1_0_57 = RMEMHigh
parameters Rcell_0_1_0_58 = RMEMLow
parameters Rcell_0_1_0_59 = RMEMLow
parameters Rcell_0_1_0_60 = RMEMHigh
parameters Rcell_0_1_0_61 = RMEMHigh
parameters Rcell_0_1_0_62 = RMEMHigh
parameters Rcell_0_1_0_63 = RMEMLow
parameters Rcell_0_1_1_0 = RMEMHigh
parameters Rcell_0_1_1_1 = RMEMLow
parameters Rcell_0_1_1_2 = RMEMLow
parameters Rcell_0_1_1_3 = RMEMLow
parameters Rcell_0_1_1_4 = RMEMLow
parameters Rcell_0_1_1_5 = RMEMLow
parameters Rcell_0_1_1_6 = RMEMLow
parameters Rcell_0_1_1_7 = RMEMLow
parameters Rcell_0_1_1_8 = RMEMLow
parameters Rcell_0_1_1_9 = RMEMLow
parameters Rcell_0_1_1_10 = RMEMHigh
parameters Rcell_0_1_1_11 = RMEMHigh
parameters Rcell_0_1_1_12 = RMEMLow
parameters Rcell_0_1_1_13 = RMEMHigh
parameters Rcell_0_1_1_14 = RMEMHigh
parameters Rcell_0_1_1_15 = RMEMHigh
parameters Rcell_0_1_1_16 = RMEMLow
parameters Rcell_0_1_1_17 = RMEMLow
parameters Rcell_0_1_1_18 = RMEMHigh
parameters Rcell_0_1_1_19 = RMEMHigh
parameters Rcell_0_1_1_20 = RMEMLow
parameters Rcell_0_1_1_21 = RMEMLow
parameters Rcell_0_1_1_22 = RMEMHigh
parameters Rcell_0_1_1_23 = RMEMHigh
parameters Rcell_0_1_1_24 = RMEMHigh
parameters Rcell_0_1_1_25 = RMEMLow
parameters Rcell_0_1_1_26 = RMEMHigh
parameters Rcell_0_1_1_27 = RMEMHigh
parameters Rcell_0_1_1_28 = RMEMLow
parameters Rcell_0_1_1_29 = RMEMLow
parameters Rcell_0_1_1_30 = RMEMLow
parameters Rcell_0_1_1_31 = RMEMHigh
parameters Rcell_0_1_1_32 = RMEMLow
parameters Rcell_0_1_1_33 = RMEMLow
parameters Rcell_0_1_1_34 = RMEMHigh
parameters Rcell_0_1_1_35 = RMEMHigh
parameters Rcell_0_1_1_36 = RMEMLow
parameters Rcell_0_1_1_37 = RMEMLow
parameters Rcell_0_1_1_38 = RMEMHigh
parameters Rcell_0_1_1_39 = RMEMLow
parameters Rcell_0_1_1_40 = RMEMHigh
parameters Rcell_0_1_1_41 = RMEMLow
parameters Rcell_0_1_1_42 = RMEMHigh
parameters Rcell_0_1_1_43 = RMEMHigh
parameters Rcell_0_1_1_44 = RMEMHigh
parameters Rcell_0_1_1_45 = RMEMLow
parameters Rcell_0_1_1_46 = RMEMHigh
parameters Rcell_0_1_1_47 = RMEMHigh
parameters Rcell_0_1_1_48 = RMEMHigh
parameters Rcell_0_1_1_49 = RMEMLow
parameters Rcell_0_1_1_50 = RMEMHigh
parameters Rcell_0_1_1_51 = RMEMHigh
parameters Rcell_0_1_1_52 = RMEMLow
parameters Rcell_0_1_1_53 = RMEMHigh
parameters Rcell_0_1_1_54 = RMEMLow
parameters Rcell_0_1_1_55 = RMEMHigh
parameters Rcell_0_1_1_56 = RMEMLow
parameters Rcell_0_1_1_57 = RMEMLow
parameters Rcell_0_1_1_58 = RMEMLow
parameters Rcell_0_1_1_59 = RMEMHigh
parameters Rcell_0_1_1_60 = RMEMLow
parameters Rcell_0_1_1_61 = RMEMLow
parameters Rcell_0_1_1_62 = RMEMHigh
parameters Rcell_0_1_1_63 = RMEMHigh
parameters Rcell_0_1_2_0 = RMEMLow
parameters Rcell_0_1_2_1 = RMEMHigh
parameters Rcell_0_1_2_2 = RMEMHigh
parameters Rcell_0_1_2_3 = RMEMLow
parameters Rcell_0_1_2_4 = RMEMHigh
parameters Rcell_0_1_2_5 = RMEMLow
parameters Rcell_0_1_2_6 = RMEMHigh
parameters Rcell_0_1_2_7 = RMEMLow
parameters Rcell_0_1_2_8 = RMEMLow
parameters Rcell_0_1_2_9 = RMEMHigh
parameters Rcell_0_1_2_10 = RMEMLow
parameters Rcell_0_1_2_11 = RMEMHigh
parameters Rcell_0_1_2_12 = RMEMHigh
parameters Rcell_0_1_2_13 = RMEMLow
parameters Rcell_0_1_2_14 = RMEMLow
parameters Rcell_0_1_2_15 = RMEMHigh
parameters Rcell_0_1_2_16 = RMEMLow
parameters Rcell_0_1_2_17 = RMEMHigh
parameters Rcell_0_1_2_18 = RMEMLow
parameters Rcell_0_1_2_19 = RMEMLow
parameters Rcell_0_1_2_20 = RMEMLow
parameters Rcell_0_1_2_21 = RMEMHigh
parameters Rcell_0_1_2_22 = RMEMLow
parameters Rcell_0_1_2_23 = RMEMLow
parameters Rcell_0_1_2_24 = RMEMHigh
parameters Rcell_0_1_2_25 = RMEMHigh
parameters Rcell_0_1_2_26 = RMEMHigh
parameters Rcell_0_1_2_27 = RMEMLow
parameters Rcell_0_1_2_28 = RMEMLow
parameters Rcell_0_1_2_29 = RMEMHigh
parameters Rcell_0_1_2_30 = RMEMLow
parameters Rcell_0_1_2_31 = RMEMLow
parameters Rcell_0_1_2_32 = RMEMHigh
parameters Rcell_0_1_2_33 = RMEMHigh
parameters Rcell_0_1_2_34 = RMEMLow
parameters Rcell_0_1_2_35 = RMEMHigh
parameters Rcell_0_1_2_36 = RMEMLow
parameters Rcell_0_1_2_37 = RMEMHigh
parameters Rcell_0_1_2_38 = RMEMLow
parameters Rcell_0_1_2_39 = RMEMLow
parameters Rcell_0_1_2_40 = RMEMHigh
parameters Rcell_0_1_2_41 = RMEMLow
parameters Rcell_0_1_2_42 = RMEMLow
parameters Rcell_0_1_2_43 = RMEMHigh
parameters Rcell_0_1_2_44 = RMEMLow
parameters Rcell_0_1_2_45 = RMEMLow
parameters Rcell_0_1_2_46 = RMEMHigh
parameters Rcell_0_1_2_47 = RMEMLow
parameters Rcell_0_1_2_48 = RMEMLow
parameters Rcell_0_1_2_49 = RMEMLow
parameters Rcell_0_1_2_50 = RMEMLow
parameters Rcell_0_1_2_51 = RMEMLow
parameters Rcell_0_1_2_52 = RMEMLow
parameters Rcell_0_1_2_53 = RMEMHigh
parameters Rcell_0_1_2_54 = RMEMHigh
parameters Rcell_0_1_2_55 = RMEMLow
parameters Rcell_0_1_2_56 = RMEMLow
parameters Rcell_0_1_2_57 = RMEMHigh
parameters Rcell_0_1_2_58 = RMEMHigh
parameters Rcell_0_1_2_59 = RMEMHigh
parameters Rcell_0_1_2_60 = RMEMHigh
parameters Rcell_0_1_2_61 = RMEMLow
parameters Rcell_0_1_2_62 = RMEMHigh
parameters Rcell_0_1_2_63 = RMEMLow
parameters Rcell_0_1_3_0 = RMEMLow
parameters Rcell_0_1_3_1 = RMEMLow
parameters Rcell_0_1_3_2 = RMEMHigh
parameters Rcell_0_1_3_3 = RMEMLow
parameters Rcell_0_1_3_4 = RMEMHigh
parameters Rcell_0_1_3_5 = RMEMHigh
parameters Rcell_0_1_3_6 = RMEMLow
parameters Rcell_0_1_3_7 = RMEMHigh
parameters Rcell_0_1_3_8 = RMEMHigh
parameters Rcell_0_1_3_9 = RMEMHigh
parameters Rcell_0_1_3_10 = RMEMLow
parameters Rcell_0_1_3_11 = RMEMLow
parameters Rcell_0_1_3_12 = RMEMHigh
parameters Rcell_0_1_3_13 = RMEMHigh
parameters Rcell_0_1_3_14 = RMEMLow
parameters Rcell_0_1_3_15 = RMEMHigh
parameters Rcell_0_1_3_16 = RMEMLow
parameters Rcell_0_1_3_17 = RMEMHigh
parameters Rcell_0_1_3_18 = RMEMLow
parameters Rcell_0_1_3_19 = RMEMHigh
parameters Rcell_0_1_3_20 = RMEMHigh
parameters Rcell_0_1_3_21 = RMEMLow
parameters Rcell_0_1_3_22 = RMEMLow
parameters Rcell_0_1_3_23 = RMEMLow
parameters Rcell_0_1_3_24 = RMEMHigh
parameters Rcell_0_1_3_25 = RMEMHigh
parameters Rcell_0_1_3_26 = RMEMHigh
parameters Rcell_0_1_3_27 = RMEMHigh
parameters Rcell_0_1_3_28 = RMEMLow
parameters Rcell_0_1_3_29 = RMEMHigh
parameters Rcell_0_1_3_30 = RMEMHigh
parameters Rcell_0_1_3_31 = RMEMLow
parameters Rcell_0_1_3_32 = RMEMHigh
parameters Rcell_0_1_3_33 = RMEMLow
parameters Rcell_0_1_3_34 = RMEMLow
parameters Rcell_0_1_3_35 = RMEMLow
parameters Rcell_0_1_3_36 = RMEMHigh
parameters Rcell_0_1_3_37 = RMEMHigh
parameters Rcell_0_1_3_38 = RMEMHigh
parameters Rcell_0_1_3_39 = RMEMLow
parameters Rcell_0_1_3_40 = RMEMLow
parameters Rcell_0_1_3_41 = RMEMLow
parameters Rcell_0_1_3_42 = RMEMLow
parameters Rcell_0_1_3_43 = RMEMHigh
parameters Rcell_0_1_3_44 = RMEMLow
parameters Rcell_0_1_3_45 = RMEMLow
parameters Rcell_0_1_3_46 = RMEMHigh
parameters Rcell_0_1_3_47 = RMEMLow
parameters Rcell_0_1_3_48 = RMEMLow
parameters Rcell_0_1_3_49 = RMEMHigh
parameters Rcell_0_1_3_50 = RMEMHigh
parameters Rcell_0_1_3_51 = RMEMHigh
parameters Rcell_0_1_3_52 = RMEMHigh
parameters Rcell_0_1_3_53 = RMEMHigh
parameters Rcell_0_1_3_54 = RMEMHigh
parameters Rcell_0_1_3_55 = RMEMLow
parameters Rcell_0_1_3_56 = RMEMLow
parameters Rcell_0_1_3_57 = RMEMHigh
parameters Rcell_0_1_3_58 = RMEMHigh
parameters Rcell_0_1_3_59 = RMEMHigh
parameters Rcell_0_1_3_60 = RMEMHigh
parameters Rcell_0_1_3_61 = RMEMLow
parameters Rcell_0_1_3_62 = RMEMLow
parameters Rcell_0_1_3_63 = RMEMLow

parameters Rref_0 = RMEMHigh
parameters Rref_2 = RMEMHigh
parameters Rref_4 = RMEMHigh
parameters Rref_6 = RMEMHigh
parameters Rref_8 = RMEMHigh
parameters Rref_10 = RMEMHigh
parameters Rref_12 = RMEMHigh
parameters Rref_14 = RMEMHigh
parameters Rref_16 = RMEMHigh
parameters Rref_18 = RMEMHigh
parameters Rref_20 = RMEMHigh
parameters Rref_22 = RMEMHigh
parameters Rref_24 = RMEMHigh
parameters Rref_26 = RMEMHigh
parameters Rref_28 = RMEMHigh
parameters Rref_30 = RMEMHigh
parameters Rref_32 = RMEMHigh
parameters Rref_34 = RMEMHigh
parameters Rref_36 = RMEMHigh
parameters Rref_38 = RMEMHigh
parameters Rref_40 = RMEMHigh
parameters Rref_42 = RMEMHigh
parameters Rref_44 = RMEMHigh
parameters Rref_46 = RMEMHigh
parameters Rref_48 = RMEMHigh
parameters Rref_50 = RMEMHigh
parameters Rref_52 = RMEMHigh
parameters Rref_54 = RMEMHigh
parameters Rref_56 = RMEMHigh
parameters Rref_58 = RMEMHigh
parameters Rref_60 = RMEMHigh
parameters Rref_62 = RMEMHigh
parameters Rref_1 = RMEMLow
parameters Rref_3 = RMEMLow
parameters Rref_5 = RMEMLow
parameters Rref_7 = RMEMLow
parameters Rref_9 = RMEMLow
parameters Rref_11 = RMEMLow
parameters Rref_13 = RMEMLow
parameters Rref_15 = RMEMLow
parameters Rref_17 = RMEMLow
parameters Rref_19 = RMEMLow
parameters Rref_21 = RMEMLow
parameters Rref_23 = RMEMLow
parameters Rref_25 = RMEMLow
parameters Rref_27 = RMEMLow
parameters Rref_29 = RMEMLow
parameters Rref_31 = RMEMLow
parameters Rref_33 = RMEMLow
parameters Rref_35 = RMEMLow
parameters Rref_37 = RMEMLow
parameters Rref_39 = RMEMLow
parameters Rref_41 = RMEMLow
parameters Rref_43 = RMEMLow
parameters Rref_45 = RMEMLow
parameters Rref_47 = RMEMLow
parameters Rref_49 = RMEMLow
parameters Rref_51 = RMEMLow
parameters Rref_53 = RMEMLow
parameters Rref_55 = RMEMLow
parameters Rref_57 = RMEMLow
parameters Rref_59 = RMEMLow
parameters Rref_61 = RMEMLow
parameters Rref_63 = RMEMLow
