
simulator lang=spectre

parameters PWmin = 100n                         //MinimalTransistorWidth
parameters PLmin = 45n                          //MinimalTransistorLenght
parameters WChargeBL = 5e-07         //BitLineChargerWidth(perBL)
parameters WDischargeBL = 5e-07   //BitLineDischargerWidth(perBL)
parameters WDischargeSL = 5e-07   //SourceLineDischargerWidth(perBL)
parameters Cpar = 0.18e-15                      //ParasiticCapacitor(perCell)
parameters PWn = 1e-07                     //DifferentialNpairWidth(perSA)
parameters PWp = 1e-07                     //DifferentialPpairWidth(perSA)
parameters PWpenable = 1e-07         //SenseAmpEnablePWidth(perSA)
parameters PWnenable = 1e-07         //SenseAmpEnableNWidth(perSA)
parameters PWmuxLB = 2e-07                //PassgateWidth(perMuxLB)
parameters PWmuxGB = 2e-07                //PassgateWidth(perMuxGB)

parameters numberofruns = 1
parameters enableMismatch = 0   //Mismatch
parameters simlength = 3e-09


parameters RMEMHigh = 7500;
parameters RMEMLow = 32500;

parameters Rcell_0_0_0_0 = RMEMLow
parameters Rcell_0_0_0_1 = RMEMHigh
parameters Rcell_0_0_0_2 = RMEMLow
parameters Rcell_0_0_0_3 = RMEMLow
parameters Rcell_0_0_0_4 = RMEMHigh
parameters Rcell_0_0_0_5 = RMEMHigh
parameters Rcell_0_0_0_6 = RMEMLow
parameters Rcell_0_0_0_7 = RMEMHigh
parameters Rcell_0_0_0_8 = RMEMHigh
parameters Rcell_0_0_0_9 = RMEMHigh
parameters Rcell_0_0_0_10 = RMEMHigh
parameters Rcell_0_0_0_11 = RMEMHigh
parameters Rcell_0_0_0_12 = RMEMHigh
parameters Rcell_0_0_0_13 = RMEMHigh
parameters Rcell_0_0_0_14 = RMEMLow
parameters Rcell_0_0_0_15 = RMEMLow
parameters Rcell_0_0_0_16 = RMEMLow
parameters Rcell_0_0_0_17 = RMEMHigh
parameters Rcell_0_0_0_18 = RMEMHigh
parameters Rcell_0_0_0_19 = RMEMHigh
parameters Rcell_0_0_0_20 = RMEMLow
parameters Rcell_0_0_0_21 = RMEMHigh
parameters Rcell_0_0_0_22 = RMEMLow
parameters Rcell_0_0_0_23 = RMEMLow
parameters Rcell_0_0_0_24 = RMEMHigh
parameters Rcell_0_0_0_25 = RMEMLow
parameters Rcell_0_0_0_26 = RMEMHigh
parameters Rcell_0_0_0_27 = RMEMHigh
parameters Rcell_0_0_0_28 = RMEMHigh
parameters Rcell_0_0_0_29 = RMEMLow
parameters Rcell_0_0_0_30 = RMEMLow
parameters Rcell_0_0_0_31 = RMEMLow
parameters Rcell_0_0_0_32 = RMEMHigh
parameters Rcell_0_0_0_33 = RMEMLow
parameters Rcell_0_0_0_34 = RMEMHigh
parameters Rcell_0_0_0_35 = RMEMHigh
parameters Rcell_0_0_0_36 = RMEMHigh
parameters Rcell_0_0_0_37 = RMEMHigh
parameters Rcell_0_0_0_38 = RMEMHigh
parameters Rcell_0_0_0_39 = RMEMHigh
parameters Rcell_0_0_0_40 = RMEMHigh
parameters Rcell_0_0_0_41 = RMEMLow
parameters Rcell_0_0_0_42 = RMEMLow
parameters Rcell_0_0_0_43 = RMEMHigh
parameters Rcell_0_0_0_44 = RMEMHigh
parameters Rcell_0_0_0_45 = RMEMLow
parameters Rcell_0_0_0_46 = RMEMHigh
parameters Rcell_0_0_0_47 = RMEMLow
parameters Rcell_0_0_0_48 = RMEMHigh
parameters Rcell_0_0_0_49 = RMEMLow
parameters Rcell_0_0_0_50 = RMEMHigh
parameters Rcell_0_0_0_51 = RMEMLow
parameters Rcell_0_0_0_52 = RMEMLow
parameters Rcell_0_0_0_53 = RMEMHigh
parameters Rcell_0_0_0_54 = RMEMLow
parameters Rcell_0_0_0_55 = RMEMLow
parameters Rcell_0_0_0_56 = RMEMHigh
parameters Rcell_0_0_0_57 = RMEMLow
parameters Rcell_0_0_0_58 = RMEMLow
parameters Rcell_0_0_0_59 = RMEMHigh
parameters Rcell_0_0_0_60 = RMEMHigh
parameters Rcell_0_0_0_61 = RMEMHigh
parameters Rcell_0_0_0_62 = RMEMHigh
parameters Rcell_0_0_0_63 = RMEMLow
parameters Rcell_0_0_0_64 = RMEMHigh
parameters Rcell_0_0_0_65 = RMEMLow
parameters Rcell_0_0_0_66 = RMEMLow
parameters Rcell_0_0_0_67 = RMEMLow
parameters Rcell_0_0_0_68 = RMEMLow
parameters Rcell_0_0_0_69 = RMEMHigh
parameters Rcell_0_0_0_70 = RMEMHigh
parameters Rcell_0_0_0_71 = RMEMLow
parameters Rcell_0_0_0_72 = RMEMLow
parameters Rcell_0_0_0_73 = RMEMLow
parameters Rcell_0_0_0_74 = RMEMLow
parameters Rcell_0_0_0_75 = RMEMHigh
parameters Rcell_0_0_0_76 = RMEMLow
parameters Rcell_0_0_0_77 = RMEMLow
parameters Rcell_0_0_0_78 = RMEMHigh
parameters Rcell_0_0_0_79 = RMEMLow
parameters Rcell_0_0_0_80 = RMEMHigh
parameters Rcell_0_0_0_81 = RMEMLow
parameters Rcell_0_0_0_82 = RMEMLow
parameters Rcell_0_0_0_83 = RMEMLow
parameters Rcell_0_0_0_84 = RMEMHigh
parameters Rcell_0_0_0_85 = RMEMHigh
parameters Rcell_0_0_0_86 = RMEMHigh
parameters Rcell_0_0_0_87 = RMEMLow
parameters Rcell_0_0_0_88 = RMEMLow
parameters Rcell_0_0_0_89 = RMEMHigh
parameters Rcell_0_0_0_90 = RMEMLow
parameters Rcell_0_0_0_91 = RMEMLow
parameters Rcell_0_0_0_92 = RMEMLow
parameters Rcell_0_0_0_93 = RMEMHigh
parameters Rcell_0_0_0_94 = RMEMLow
parameters Rcell_0_0_0_95 = RMEMHigh
parameters Rcell_0_0_0_96 = RMEMLow
parameters Rcell_0_0_0_97 = RMEMHigh
parameters Rcell_0_0_0_98 = RMEMHigh
parameters Rcell_0_0_0_99 = RMEMHigh
parameters Rcell_0_0_0_100 = RMEMHigh
parameters Rcell_0_0_0_101 = RMEMLow
parameters Rcell_0_0_0_102 = RMEMLow
parameters Rcell_0_0_0_103 = RMEMHigh
parameters Rcell_0_0_0_104 = RMEMLow
parameters Rcell_0_0_0_105 = RMEMHigh
parameters Rcell_0_0_0_106 = RMEMHigh
parameters Rcell_0_0_0_107 = RMEMHigh
parameters Rcell_0_0_0_108 = RMEMHigh
parameters Rcell_0_0_0_109 = RMEMHigh
parameters Rcell_0_0_0_110 = RMEMLow
parameters Rcell_0_0_0_111 = RMEMHigh
parameters Rcell_0_0_0_112 = RMEMHigh
parameters Rcell_0_0_0_113 = RMEMHigh
parameters Rcell_0_0_0_114 = RMEMHigh
parameters Rcell_0_0_0_115 = RMEMHigh
parameters Rcell_0_0_0_116 = RMEMHigh
parameters Rcell_0_0_0_117 = RMEMHigh
parameters Rcell_0_0_0_118 = RMEMHigh
parameters Rcell_0_0_0_119 = RMEMLow
parameters Rcell_0_0_0_120 = RMEMLow
parameters Rcell_0_0_0_121 = RMEMLow
parameters Rcell_0_0_0_122 = RMEMLow
parameters Rcell_0_0_0_123 = RMEMLow
parameters Rcell_0_0_0_124 = RMEMLow
parameters Rcell_0_0_0_125 = RMEMHigh
parameters Rcell_0_0_0_126 = RMEMLow
parameters Rcell_0_0_0_127 = RMEMHigh
parameters Rcell_0_0_1_0 = RMEMLow
parameters Rcell_0_0_1_1 = RMEMHigh
parameters Rcell_0_0_1_2 = RMEMLow
parameters Rcell_0_0_1_3 = RMEMLow
parameters Rcell_0_0_1_4 = RMEMHigh
parameters Rcell_0_0_1_5 = RMEMHigh
parameters Rcell_0_0_1_6 = RMEMHigh
parameters Rcell_0_0_1_7 = RMEMHigh
parameters Rcell_0_0_1_8 = RMEMHigh
parameters Rcell_0_0_1_9 = RMEMLow
parameters Rcell_0_0_1_10 = RMEMHigh
parameters Rcell_0_0_1_11 = RMEMHigh
parameters Rcell_0_0_1_12 = RMEMLow
parameters Rcell_0_0_1_13 = RMEMHigh
parameters Rcell_0_0_1_14 = RMEMHigh
parameters Rcell_0_0_1_15 = RMEMHigh
parameters Rcell_0_0_1_16 = RMEMHigh
parameters Rcell_0_0_1_17 = RMEMHigh
parameters Rcell_0_0_1_18 = RMEMLow
parameters Rcell_0_0_1_19 = RMEMHigh
parameters Rcell_0_0_1_20 = RMEMHigh
parameters Rcell_0_0_1_21 = RMEMLow
parameters Rcell_0_0_1_22 = RMEMLow
parameters Rcell_0_0_1_23 = RMEMHigh
parameters Rcell_0_0_1_24 = RMEMLow
parameters Rcell_0_0_1_25 = RMEMLow
parameters Rcell_0_0_1_26 = RMEMHigh
parameters Rcell_0_0_1_27 = RMEMHigh
parameters Rcell_0_0_1_28 = RMEMHigh
parameters Rcell_0_0_1_29 = RMEMHigh
parameters Rcell_0_0_1_30 = RMEMHigh
parameters Rcell_0_0_1_31 = RMEMHigh
parameters Rcell_0_0_1_32 = RMEMLow
parameters Rcell_0_0_1_33 = RMEMHigh
parameters Rcell_0_0_1_34 = RMEMHigh
parameters Rcell_0_0_1_35 = RMEMLow
parameters Rcell_0_0_1_36 = RMEMHigh
parameters Rcell_0_0_1_37 = RMEMLow
parameters Rcell_0_0_1_38 = RMEMHigh
parameters Rcell_0_0_1_39 = RMEMLow
parameters Rcell_0_0_1_40 = RMEMLow
parameters Rcell_0_0_1_41 = RMEMHigh
parameters Rcell_0_0_1_42 = RMEMHigh
parameters Rcell_0_0_1_43 = RMEMLow
parameters Rcell_0_0_1_44 = RMEMHigh
parameters Rcell_0_0_1_45 = RMEMHigh
parameters Rcell_0_0_1_46 = RMEMHigh
parameters Rcell_0_0_1_47 = RMEMHigh
parameters Rcell_0_0_1_48 = RMEMHigh
parameters Rcell_0_0_1_49 = RMEMLow
parameters Rcell_0_0_1_50 = RMEMLow
parameters Rcell_0_0_1_51 = RMEMHigh
parameters Rcell_0_0_1_52 = RMEMHigh
parameters Rcell_0_0_1_53 = RMEMLow
parameters Rcell_0_0_1_54 = RMEMLow
parameters Rcell_0_0_1_55 = RMEMHigh
parameters Rcell_0_0_1_56 = RMEMHigh
parameters Rcell_0_0_1_57 = RMEMLow
parameters Rcell_0_0_1_58 = RMEMHigh
parameters Rcell_0_0_1_59 = RMEMLow
parameters Rcell_0_0_1_60 = RMEMLow
parameters Rcell_0_0_1_61 = RMEMHigh
parameters Rcell_0_0_1_62 = RMEMHigh
parameters Rcell_0_0_1_63 = RMEMHigh
parameters Rcell_0_0_1_64 = RMEMLow
parameters Rcell_0_0_1_65 = RMEMLow
parameters Rcell_0_0_1_66 = RMEMLow
parameters Rcell_0_0_1_67 = RMEMLow
parameters Rcell_0_0_1_68 = RMEMLow
parameters Rcell_0_0_1_69 = RMEMLow
parameters Rcell_0_0_1_70 = RMEMHigh
parameters Rcell_0_0_1_71 = RMEMLow
parameters Rcell_0_0_1_72 = RMEMHigh
parameters Rcell_0_0_1_73 = RMEMLow
parameters Rcell_0_0_1_74 = RMEMLow
parameters Rcell_0_0_1_75 = RMEMLow
parameters Rcell_0_0_1_76 = RMEMHigh
parameters Rcell_0_0_1_77 = RMEMLow
parameters Rcell_0_0_1_78 = RMEMLow
parameters Rcell_0_0_1_79 = RMEMLow
parameters Rcell_0_0_1_80 = RMEMLow
parameters Rcell_0_0_1_81 = RMEMLow
parameters Rcell_0_0_1_82 = RMEMLow
parameters Rcell_0_0_1_83 = RMEMLow
parameters Rcell_0_0_1_84 = RMEMLow
parameters Rcell_0_0_1_85 = RMEMLow
parameters Rcell_0_0_1_86 = RMEMHigh
parameters Rcell_0_0_1_87 = RMEMHigh
parameters Rcell_0_0_1_88 = RMEMHigh
parameters Rcell_0_0_1_89 = RMEMHigh
parameters Rcell_0_0_1_90 = RMEMHigh
parameters Rcell_0_0_1_91 = RMEMLow
parameters Rcell_0_0_1_92 = RMEMHigh
parameters Rcell_0_0_1_93 = RMEMHigh
parameters Rcell_0_0_1_94 = RMEMLow
parameters Rcell_0_0_1_95 = RMEMLow
parameters Rcell_0_0_1_96 = RMEMHigh
parameters Rcell_0_0_1_97 = RMEMLow
parameters Rcell_0_0_1_98 = RMEMLow
parameters Rcell_0_0_1_99 = RMEMLow
parameters Rcell_0_0_1_100 = RMEMHigh
parameters Rcell_0_0_1_101 = RMEMLow
parameters Rcell_0_0_1_102 = RMEMHigh
parameters Rcell_0_0_1_103 = RMEMLow
parameters Rcell_0_0_1_104 = RMEMLow
parameters Rcell_0_0_1_105 = RMEMLow
parameters Rcell_0_0_1_106 = RMEMLow
parameters Rcell_0_0_1_107 = RMEMHigh
parameters Rcell_0_0_1_108 = RMEMLow
parameters Rcell_0_0_1_109 = RMEMLow
parameters Rcell_0_0_1_110 = RMEMLow
parameters Rcell_0_0_1_111 = RMEMHigh
parameters Rcell_0_0_1_112 = RMEMLow
parameters Rcell_0_0_1_113 = RMEMHigh
parameters Rcell_0_0_1_114 = RMEMHigh
parameters Rcell_0_0_1_115 = RMEMHigh
parameters Rcell_0_0_1_116 = RMEMLow
parameters Rcell_0_0_1_117 = RMEMHigh
parameters Rcell_0_0_1_118 = RMEMHigh
parameters Rcell_0_0_1_119 = RMEMLow
parameters Rcell_0_0_1_120 = RMEMHigh
parameters Rcell_0_0_1_121 = RMEMLow
parameters Rcell_0_0_1_122 = RMEMHigh
parameters Rcell_0_0_1_123 = RMEMHigh
parameters Rcell_0_0_1_124 = RMEMHigh
parameters Rcell_0_0_1_125 = RMEMHigh
parameters Rcell_0_0_1_126 = RMEMLow
parameters Rcell_0_0_1_127 = RMEMHigh
parameters Rcell_0_0_2_0 = RMEMLow
parameters Rcell_0_0_2_1 = RMEMHigh
parameters Rcell_0_0_2_2 = RMEMHigh
parameters Rcell_0_0_2_3 = RMEMHigh
parameters Rcell_0_0_2_4 = RMEMLow
parameters Rcell_0_0_2_5 = RMEMHigh
parameters Rcell_0_0_2_6 = RMEMLow
parameters Rcell_0_0_2_7 = RMEMLow
parameters Rcell_0_0_2_8 = RMEMHigh
parameters Rcell_0_0_2_9 = RMEMLow
parameters Rcell_0_0_2_10 = RMEMHigh
parameters Rcell_0_0_2_11 = RMEMHigh
parameters Rcell_0_0_2_12 = RMEMHigh
parameters Rcell_0_0_2_13 = RMEMHigh
parameters Rcell_0_0_2_14 = RMEMLow
parameters Rcell_0_0_2_15 = RMEMLow
parameters Rcell_0_0_2_16 = RMEMHigh
parameters Rcell_0_0_2_17 = RMEMLow
parameters Rcell_0_0_2_18 = RMEMLow
parameters Rcell_0_0_2_19 = RMEMLow
parameters Rcell_0_0_2_20 = RMEMLow
parameters Rcell_0_0_2_21 = RMEMLow
parameters Rcell_0_0_2_22 = RMEMHigh
parameters Rcell_0_0_2_23 = RMEMLow
parameters Rcell_0_0_2_24 = RMEMLow
parameters Rcell_0_0_2_25 = RMEMLow
parameters Rcell_0_0_2_26 = RMEMHigh
parameters Rcell_0_0_2_27 = RMEMLow
parameters Rcell_0_0_2_28 = RMEMHigh
parameters Rcell_0_0_2_29 = RMEMLow
parameters Rcell_0_0_2_30 = RMEMHigh
parameters Rcell_0_0_2_31 = RMEMHigh
parameters Rcell_0_0_2_32 = RMEMHigh
parameters Rcell_0_0_2_33 = RMEMLow
parameters Rcell_0_0_2_34 = RMEMHigh
parameters Rcell_0_0_2_35 = RMEMLow
parameters Rcell_0_0_2_36 = RMEMHigh
parameters Rcell_0_0_2_37 = RMEMHigh
parameters Rcell_0_0_2_38 = RMEMLow
parameters Rcell_0_0_2_39 = RMEMHigh
parameters Rcell_0_0_2_40 = RMEMLow
parameters Rcell_0_0_2_41 = RMEMHigh
parameters Rcell_0_0_2_42 = RMEMHigh
parameters Rcell_0_0_2_43 = RMEMLow
parameters Rcell_0_0_2_44 = RMEMLow
parameters Rcell_0_0_2_45 = RMEMHigh
parameters Rcell_0_0_2_46 = RMEMLow
parameters Rcell_0_0_2_47 = RMEMHigh
parameters Rcell_0_0_2_48 = RMEMLow
parameters Rcell_0_0_2_49 = RMEMHigh
parameters Rcell_0_0_2_50 = RMEMHigh
parameters Rcell_0_0_2_51 = RMEMHigh
parameters Rcell_0_0_2_52 = RMEMLow
parameters Rcell_0_0_2_53 = RMEMLow
parameters Rcell_0_0_2_54 = RMEMHigh
parameters Rcell_0_0_2_55 = RMEMHigh
parameters Rcell_0_0_2_56 = RMEMHigh
parameters Rcell_0_0_2_57 = RMEMLow
parameters Rcell_0_0_2_58 = RMEMHigh
parameters Rcell_0_0_2_59 = RMEMHigh
parameters Rcell_0_0_2_60 = RMEMHigh
parameters Rcell_0_0_2_61 = RMEMLow
parameters Rcell_0_0_2_62 = RMEMHigh
parameters Rcell_0_0_2_63 = RMEMHigh
parameters Rcell_0_0_2_64 = RMEMHigh
parameters Rcell_0_0_2_65 = RMEMLow
parameters Rcell_0_0_2_66 = RMEMHigh
parameters Rcell_0_0_2_67 = RMEMHigh
parameters Rcell_0_0_2_68 = RMEMLow
parameters Rcell_0_0_2_69 = RMEMHigh
parameters Rcell_0_0_2_70 = RMEMLow
parameters Rcell_0_0_2_71 = RMEMLow
parameters Rcell_0_0_2_72 = RMEMHigh
parameters Rcell_0_0_2_73 = RMEMHigh
parameters Rcell_0_0_2_74 = RMEMLow
parameters Rcell_0_0_2_75 = RMEMLow
parameters Rcell_0_0_2_76 = RMEMHigh
parameters Rcell_0_0_2_77 = RMEMLow
parameters Rcell_0_0_2_78 = RMEMLow
parameters Rcell_0_0_2_79 = RMEMHigh
parameters Rcell_0_0_2_80 = RMEMLow
parameters Rcell_0_0_2_81 = RMEMHigh
parameters Rcell_0_0_2_82 = RMEMLow
parameters Rcell_0_0_2_83 = RMEMHigh
parameters Rcell_0_0_2_84 = RMEMLow
parameters Rcell_0_0_2_85 = RMEMLow
parameters Rcell_0_0_2_86 = RMEMHigh
parameters Rcell_0_0_2_87 = RMEMLow
parameters Rcell_0_0_2_88 = RMEMHigh
parameters Rcell_0_0_2_89 = RMEMLow
parameters Rcell_0_0_2_90 = RMEMLow
parameters Rcell_0_0_2_91 = RMEMLow
parameters Rcell_0_0_2_92 = RMEMHigh
parameters Rcell_0_0_2_93 = RMEMHigh
parameters Rcell_0_0_2_94 = RMEMHigh
parameters Rcell_0_0_2_95 = RMEMLow
parameters Rcell_0_0_2_96 = RMEMHigh
parameters Rcell_0_0_2_97 = RMEMHigh
parameters Rcell_0_0_2_98 = RMEMLow
parameters Rcell_0_0_2_99 = RMEMLow
parameters Rcell_0_0_2_100 = RMEMLow
parameters Rcell_0_0_2_101 = RMEMHigh
parameters Rcell_0_0_2_102 = RMEMHigh
parameters Rcell_0_0_2_103 = RMEMHigh
parameters Rcell_0_0_2_104 = RMEMHigh
parameters Rcell_0_0_2_105 = RMEMLow
parameters Rcell_0_0_2_106 = RMEMLow
parameters Rcell_0_0_2_107 = RMEMLow
parameters Rcell_0_0_2_108 = RMEMHigh
parameters Rcell_0_0_2_109 = RMEMHigh
parameters Rcell_0_0_2_110 = RMEMLow
parameters Rcell_0_0_2_111 = RMEMHigh
parameters Rcell_0_0_2_112 = RMEMLow
parameters Rcell_0_0_2_113 = RMEMHigh
parameters Rcell_0_0_2_114 = RMEMHigh
parameters Rcell_0_0_2_115 = RMEMLow
parameters Rcell_0_0_2_116 = RMEMLow
parameters Rcell_0_0_2_117 = RMEMLow
parameters Rcell_0_0_2_118 = RMEMLow
parameters Rcell_0_0_2_119 = RMEMHigh
parameters Rcell_0_0_2_120 = RMEMHigh
parameters Rcell_0_0_2_121 = RMEMHigh
parameters Rcell_0_0_2_122 = RMEMLow
parameters Rcell_0_0_2_123 = RMEMHigh
parameters Rcell_0_0_2_124 = RMEMHigh
parameters Rcell_0_0_2_125 = RMEMHigh
parameters Rcell_0_0_2_126 = RMEMLow
parameters Rcell_0_0_2_127 = RMEMHigh
parameters Rcell_0_0_3_0 = RMEMLow
parameters Rcell_0_0_3_1 = RMEMHigh
parameters Rcell_0_0_3_2 = RMEMHigh
parameters Rcell_0_0_3_3 = RMEMHigh
parameters Rcell_0_0_3_4 = RMEMHigh
parameters Rcell_0_0_3_5 = RMEMLow
parameters Rcell_0_0_3_6 = RMEMLow
parameters Rcell_0_0_3_7 = RMEMLow
parameters Rcell_0_0_3_8 = RMEMLow
parameters Rcell_0_0_3_9 = RMEMLow
parameters Rcell_0_0_3_10 = RMEMLow
parameters Rcell_0_0_3_11 = RMEMLow
parameters Rcell_0_0_3_12 = RMEMHigh
parameters Rcell_0_0_3_13 = RMEMLow
parameters Rcell_0_0_3_14 = RMEMHigh
parameters Rcell_0_0_3_15 = RMEMHigh
parameters Rcell_0_0_3_16 = RMEMHigh
parameters Rcell_0_0_3_17 = RMEMHigh
parameters Rcell_0_0_3_18 = RMEMHigh
parameters Rcell_0_0_3_19 = RMEMHigh
parameters Rcell_0_0_3_20 = RMEMHigh
parameters Rcell_0_0_3_21 = RMEMHigh
parameters Rcell_0_0_3_22 = RMEMLow
parameters Rcell_0_0_3_23 = RMEMHigh
parameters Rcell_0_0_3_24 = RMEMLow
parameters Rcell_0_0_3_25 = RMEMHigh
parameters Rcell_0_0_3_26 = RMEMLow
parameters Rcell_0_0_3_27 = RMEMLow
parameters Rcell_0_0_3_28 = RMEMLow
parameters Rcell_0_0_3_29 = RMEMHigh
parameters Rcell_0_0_3_30 = RMEMLow
parameters Rcell_0_0_3_31 = RMEMLow
parameters Rcell_0_0_3_32 = RMEMLow
parameters Rcell_0_0_3_33 = RMEMLow
parameters Rcell_0_0_3_34 = RMEMHigh
parameters Rcell_0_0_3_35 = RMEMHigh
parameters Rcell_0_0_3_36 = RMEMLow
parameters Rcell_0_0_3_37 = RMEMHigh
parameters Rcell_0_0_3_38 = RMEMLow
parameters Rcell_0_0_3_39 = RMEMHigh
parameters Rcell_0_0_3_40 = RMEMHigh
parameters Rcell_0_0_3_41 = RMEMLow
parameters Rcell_0_0_3_42 = RMEMLow
parameters Rcell_0_0_3_43 = RMEMHigh
parameters Rcell_0_0_3_44 = RMEMHigh
parameters Rcell_0_0_3_45 = RMEMHigh
parameters Rcell_0_0_3_46 = RMEMLow
parameters Rcell_0_0_3_47 = RMEMHigh
parameters Rcell_0_0_3_48 = RMEMHigh
parameters Rcell_0_0_3_49 = RMEMLow
parameters Rcell_0_0_3_50 = RMEMLow
parameters Rcell_0_0_3_51 = RMEMHigh
parameters Rcell_0_0_3_52 = RMEMLow
parameters Rcell_0_0_3_53 = RMEMHigh
parameters Rcell_0_0_3_54 = RMEMHigh
parameters Rcell_0_0_3_55 = RMEMHigh
parameters Rcell_0_0_3_56 = RMEMLow
parameters Rcell_0_0_3_57 = RMEMHigh
parameters Rcell_0_0_3_58 = RMEMHigh
parameters Rcell_0_0_3_59 = RMEMLow
parameters Rcell_0_0_3_60 = RMEMLow
parameters Rcell_0_0_3_61 = RMEMHigh
parameters Rcell_0_0_3_62 = RMEMHigh
parameters Rcell_0_0_3_63 = RMEMHigh
parameters Rcell_0_0_3_64 = RMEMLow
parameters Rcell_0_0_3_65 = RMEMHigh
parameters Rcell_0_0_3_66 = RMEMLow
parameters Rcell_0_0_3_67 = RMEMLow
parameters Rcell_0_0_3_68 = RMEMLow
parameters Rcell_0_0_3_69 = RMEMLow
parameters Rcell_0_0_3_70 = RMEMLow
parameters Rcell_0_0_3_71 = RMEMHigh
parameters Rcell_0_0_3_72 = RMEMLow
parameters Rcell_0_0_3_73 = RMEMHigh
parameters Rcell_0_0_3_74 = RMEMLow
parameters Rcell_0_0_3_75 = RMEMLow
parameters Rcell_0_0_3_76 = RMEMLow
parameters Rcell_0_0_3_77 = RMEMHigh
parameters Rcell_0_0_3_78 = RMEMLow
parameters Rcell_0_0_3_79 = RMEMHigh
parameters Rcell_0_0_3_80 = RMEMLow
parameters Rcell_0_0_3_81 = RMEMHigh
parameters Rcell_0_0_3_82 = RMEMLow
parameters Rcell_0_0_3_83 = RMEMLow
parameters Rcell_0_0_3_84 = RMEMHigh
parameters Rcell_0_0_3_85 = RMEMHigh
parameters Rcell_0_0_3_86 = RMEMHigh
parameters Rcell_0_0_3_87 = RMEMLow
parameters Rcell_0_0_3_88 = RMEMHigh
parameters Rcell_0_0_3_89 = RMEMLow
parameters Rcell_0_0_3_90 = RMEMLow
parameters Rcell_0_0_3_91 = RMEMLow
parameters Rcell_0_0_3_92 = RMEMLow
parameters Rcell_0_0_3_93 = RMEMHigh
parameters Rcell_0_0_3_94 = RMEMHigh
parameters Rcell_0_0_3_95 = RMEMLow
parameters Rcell_0_0_3_96 = RMEMLow
parameters Rcell_0_0_3_97 = RMEMHigh
parameters Rcell_0_0_3_98 = RMEMLow
parameters Rcell_0_0_3_99 = RMEMLow
parameters Rcell_0_0_3_100 = RMEMHigh
parameters Rcell_0_0_3_101 = RMEMHigh
parameters Rcell_0_0_3_102 = RMEMHigh
parameters Rcell_0_0_3_103 = RMEMHigh
parameters Rcell_0_0_3_104 = RMEMLow
parameters Rcell_0_0_3_105 = RMEMHigh
parameters Rcell_0_0_3_106 = RMEMHigh
parameters Rcell_0_0_3_107 = RMEMLow
parameters Rcell_0_0_3_108 = RMEMHigh
parameters Rcell_0_0_3_109 = RMEMHigh
parameters Rcell_0_0_3_110 = RMEMLow
parameters Rcell_0_0_3_111 = RMEMHigh
parameters Rcell_0_0_3_112 = RMEMHigh
parameters Rcell_0_0_3_113 = RMEMLow
parameters Rcell_0_0_3_114 = RMEMHigh
parameters Rcell_0_0_3_115 = RMEMLow
parameters Rcell_0_0_3_116 = RMEMLow
parameters Rcell_0_0_3_117 = RMEMHigh
parameters Rcell_0_0_3_118 = RMEMLow
parameters Rcell_0_0_3_119 = RMEMLow
parameters Rcell_0_0_3_120 = RMEMLow
parameters Rcell_0_0_3_121 = RMEMHigh
parameters Rcell_0_0_3_122 = RMEMHigh
parameters Rcell_0_0_3_123 = RMEMLow
parameters Rcell_0_0_3_124 = RMEMHigh
parameters Rcell_0_0_3_125 = RMEMHigh
parameters Rcell_0_0_3_126 = RMEMHigh
parameters Rcell_0_0_3_127 = RMEMLow
parameters Rcell_0_0_4_0 = RMEMLow
parameters Rcell_0_0_4_1 = RMEMHigh
parameters Rcell_0_0_4_2 = RMEMHigh
parameters Rcell_0_0_4_3 = RMEMHigh
parameters Rcell_0_0_4_4 = RMEMLow
parameters Rcell_0_0_4_5 = RMEMHigh
parameters Rcell_0_0_4_6 = RMEMLow
parameters Rcell_0_0_4_7 = RMEMHigh
parameters Rcell_0_0_4_8 = RMEMLow
parameters Rcell_0_0_4_9 = RMEMLow
parameters Rcell_0_0_4_10 = RMEMHigh
parameters Rcell_0_0_4_11 = RMEMHigh
parameters Rcell_0_0_4_12 = RMEMLow
parameters Rcell_0_0_4_13 = RMEMLow
parameters Rcell_0_0_4_14 = RMEMHigh
parameters Rcell_0_0_4_15 = RMEMHigh
parameters Rcell_0_0_4_16 = RMEMLow
parameters Rcell_0_0_4_17 = RMEMHigh
parameters Rcell_0_0_4_18 = RMEMHigh
parameters Rcell_0_0_4_19 = RMEMLow
parameters Rcell_0_0_4_20 = RMEMHigh
parameters Rcell_0_0_4_21 = RMEMHigh
parameters Rcell_0_0_4_22 = RMEMHigh
parameters Rcell_0_0_4_23 = RMEMLow
parameters Rcell_0_0_4_24 = RMEMHigh
parameters Rcell_0_0_4_25 = RMEMHigh
parameters Rcell_0_0_4_26 = RMEMLow
parameters Rcell_0_0_4_27 = RMEMHigh
parameters Rcell_0_0_4_28 = RMEMLow
parameters Rcell_0_0_4_29 = RMEMHigh
parameters Rcell_0_0_4_30 = RMEMHigh
parameters Rcell_0_0_4_31 = RMEMLow
parameters Rcell_0_0_4_32 = RMEMLow
parameters Rcell_0_0_4_33 = RMEMHigh
parameters Rcell_0_0_4_34 = RMEMLow
parameters Rcell_0_0_4_35 = RMEMLow
parameters Rcell_0_0_4_36 = RMEMLow
parameters Rcell_0_0_4_37 = RMEMLow
parameters Rcell_0_0_4_38 = RMEMLow
parameters Rcell_0_0_4_39 = RMEMHigh
parameters Rcell_0_0_4_40 = RMEMLow
parameters Rcell_0_0_4_41 = RMEMHigh
parameters Rcell_0_0_4_42 = RMEMLow
parameters Rcell_0_0_4_43 = RMEMHigh
parameters Rcell_0_0_4_44 = RMEMHigh
parameters Rcell_0_0_4_45 = RMEMLow
parameters Rcell_0_0_4_46 = RMEMLow
parameters Rcell_0_0_4_47 = RMEMHigh
parameters Rcell_0_0_4_48 = RMEMHigh
parameters Rcell_0_0_4_49 = RMEMHigh
parameters Rcell_0_0_4_50 = RMEMLow
parameters Rcell_0_0_4_51 = RMEMLow
parameters Rcell_0_0_4_52 = RMEMLow
parameters Rcell_0_0_4_53 = RMEMLow
parameters Rcell_0_0_4_54 = RMEMLow
parameters Rcell_0_0_4_55 = RMEMLow
parameters Rcell_0_0_4_56 = RMEMLow
parameters Rcell_0_0_4_57 = RMEMLow
parameters Rcell_0_0_4_58 = RMEMHigh
parameters Rcell_0_0_4_59 = RMEMHigh
parameters Rcell_0_0_4_60 = RMEMLow
parameters Rcell_0_0_4_61 = RMEMLow
parameters Rcell_0_0_4_62 = RMEMLow
parameters Rcell_0_0_4_63 = RMEMLow
parameters Rcell_0_0_4_64 = RMEMLow
parameters Rcell_0_0_4_65 = RMEMLow
parameters Rcell_0_0_4_66 = RMEMLow
parameters Rcell_0_0_4_67 = RMEMHigh
parameters Rcell_0_0_4_68 = RMEMHigh
parameters Rcell_0_0_4_69 = RMEMLow
parameters Rcell_0_0_4_70 = RMEMHigh
parameters Rcell_0_0_4_71 = RMEMHigh
parameters Rcell_0_0_4_72 = RMEMHigh
parameters Rcell_0_0_4_73 = RMEMHigh
parameters Rcell_0_0_4_74 = RMEMHigh
parameters Rcell_0_0_4_75 = RMEMLow
parameters Rcell_0_0_4_76 = RMEMHigh
parameters Rcell_0_0_4_77 = RMEMHigh
parameters Rcell_0_0_4_78 = RMEMHigh
parameters Rcell_0_0_4_79 = RMEMLow
parameters Rcell_0_0_4_80 = RMEMLow
parameters Rcell_0_0_4_81 = RMEMHigh
parameters Rcell_0_0_4_82 = RMEMHigh
parameters Rcell_0_0_4_83 = RMEMHigh
parameters Rcell_0_0_4_84 = RMEMHigh
parameters Rcell_0_0_4_85 = RMEMHigh
parameters Rcell_0_0_4_86 = RMEMHigh
parameters Rcell_0_0_4_87 = RMEMHigh
parameters Rcell_0_0_4_88 = RMEMHigh
parameters Rcell_0_0_4_89 = RMEMHigh
parameters Rcell_0_0_4_90 = RMEMHigh
parameters Rcell_0_0_4_91 = RMEMHigh
parameters Rcell_0_0_4_92 = RMEMHigh
parameters Rcell_0_0_4_93 = RMEMLow
parameters Rcell_0_0_4_94 = RMEMLow
parameters Rcell_0_0_4_95 = RMEMHigh
parameters Rcell_0_0_4_96 = RMEMLow
parameters Rcell_0_0_4_97 = RMEMLow
parameters Rcell_0_0_4_98 = RMEMLow
parameters Rcell_0_0_4_99 = RMEMLow
parameters Rcell_0_0_4_100 = RMEMLow
parameters Rcell_0_0_4_101 = RMEMHigh
parameters Rcell_0_0_4_102 = RMEMHigh
parameters Rcell_0_0_4_103 = RMEMHigh
parameters Rcell_0_0_4_104 = RMEMHigh
parameters Rcell_0_0_4_105 = RMEMLow
parameters Rcell_0_0_4_106 = RMEMHigh
parameters Rcell_0_0_4_107 = RMEMLow
parameters Rcell_0_0_4_108 = RMEMLow
parameters Rcell_0_0_4_109 = RMEMLow
parameters Rcell_0_0_4_110 = RMEMLow
parameters Rcell_0_0_4_111 = RMEMLow
parameters Rcell_0_0_4_112 = RMEMLow
parameters Rcell_0_0_4_113 = RMEMLow
parameters Rcell_0_0_4_114 = RMEMHigh
parameters Rcell_0_0_4_115 = RMEMLow
parameters Rcell_0_0_4_116 = RMEMHigh
parameters Rcell_0_0_4_117 = RMEMLow
parameters Rcell_0_0_4_118 = RMEMHigh
parameters Rcell_0_0_4_119 = RMEMHigh
parameters Rcell_0_0_4_120 = RMEMLow
parameters Rcell_0_0_4_121 = RMEMHigh
parameters Rcell_0_0_4_122 = RMEMLow
parameters Rcell_0_0_4_123 = RMEMLow
parameters Rcell_0_0_4_124 = RMEMHigh
parameters Rcell_0_0_4_125 = RMEMHigh
parameters Rcell_0_0_4_126 = RMEMLow
parameters Rcell_0_0_4_127 = RMEMHigh
parameters Rcell_0_0_5_0 = RMEMLow
parameters Rcell_0_0_5_1 = RMEMLow
parameters Rcell_0_0_5_2 = RMEMHigh
parameters Rcell_0_0_5_3 = RMEMHigh
parameters Rcell_0_0_5_4 = RMEMHigh
parameters Rcell_0_0_5_5 = RMEMHigh
parameters Rcell_0_0_5_6 = RMEMLow
parameters Rcell_0_0_5_7 = RMEMLow
parameters Rcell_0_0_5_8 = RMEMHigh
parameters Rcell_0_0_5_9 = RMEMLow
parameters Rcell_0_0_5_10 = RMEMLow
parameters Rcell_0_0_5_11 = RMEMLow
parameters Rcell_0_0_5_12 = RMEMHigh
parameters Rcell_0_0_5_13 = RMEMLow
parameters Rcell_0_0_5_14 = RMEMLow
parameters Rcell_0_0_5_15 = RMEMLow
parameters Rcell_0_0_5_16 = RMEMLow
parameters Rcell_0_0_5_17 = RMEMHigh
parameters Rcell_0_0_5_18 = RMEMLow
parameters Rcell_0_0_5_19 = RMEMHigh
parameters Rcell_0_0_5_20 = RMEMHigh
parameters Rcell_0_0_5_21 = RMEMHigh
parameters Rcell_0_0_5_22 = RMEMHigh
parameters Rcell_0_0_5_23 = RMEMLow
parameters Rcell_0_0_5_24 = RMEMLow
parameters Rcell_0_0_5_25 = RMEMLow
parameters Rcell_0_0_5_26 = RMEMHigh
parameters Rcell_0_0_5_27 = RMEMHigh
parameters Rcell_0_0_5_28 = RMEMHigh
parameters Rcell_0_0_5_29 = RMEMLow
parameters Rcell_0_0_5_30 = RMEMLow
parameters Rcell_0_0_5_31 = RMEMHigh
parameters Rcell_0_0_5_32 = RMEMLow
parameters Rcell_0_0_5_33 = RMEMLow
parameters Rcell_0_0_5_34 = RMEMLow
parameters Rcell_0_0_5_35 = RMEMLow
parameters Rcell_0_0_5_36 = RMEMLow
parameters Rcell_0_0_5_37 = RMEMLow
parameters Rcell_0_0_5_38 = RMEMHigh
parameters Rcell_0_0_5_39 = RMEMHigh
parameters Rcell_0_0_5_40 = RMEMLow
parameters Rcell_0_0_5_41 = RMEMHigh
parameters Rcell_0_0_5_42 = RMEMHigh
parameters Rcell_0_0_5_43 = RMEMHigh
parameters Rcell_0_0_5_44 = RMEMLow
parameters Rcell_0_0_5_45 = RMEMHigh
parameters Rcell_0_0_5_46 = RMEMLow
parameters Rcell_0_0_5_47 = RMEMHigh
parameters Rcell_0_0_5_48 = RMEMLow
parameters Rcell_0_0_5_49 = RMEMHigh
parameters Rcell_0_0_5_50 = RMEMLow
parameters Rcell_0_0_5_51 = RMEMHigh
parameters Rcell_0_0_5_52 = RMEMLow
parameters Rcell_0_0_5_53 = RMEMHigh
parameters Rcell_0_0_5_54 = RMEMLow
parameters Rcell_0_0_5_55 = RMEMLow
parameters Rcell_0_0_5_56 = RMEMHigh
parameters Rcell_0_0_5_57 = RMEMLow
parameters Rcell_0_0_5_58 = RMEMLow
parameters Rcell_0_0_5_59 = RMEMLow
parameters Rcell_0_0_5_60 = RMEMLow
parameters Rcell_0_0_5_61 = RMEMLow
parameters Rcell_0_0_5_62 = RMEMLow
parameters Rcell_0_0_5_63 = RMEMLow
parameters Rcell_0_0_5_64 = RMEMHigh
parameters Rcell_0_0_5_65 = RMEMHigh
parameters Rcell_0_0_5_66 = RMEMHigh
parameters Rcell_0_0_5_67 = RMEMHigh
parameters Rcell_0_0_5_68 = RMEMHigh
parameters Rcell_0_0_5_69 = RMEMHigh
parameters Rcell_0_0_5_70 = RMEMLow
parameters Rcell_0_0_5_71 = RMEMLow
parameters Rcell_0_0_5_72 = RMEMHigh
parameters Rcell_0_0_5_73 = RMEMLow
parameters Rcell_0_0_5_74 = RMEMHigh
parameters Rcell_0_0_5_75 = RMEMLow
parameters Rcell_0_0_5_76 = RMEMHigh
parameters Rcell_0_0_5_77 = RMEMLow
parameters Rcell_0_0_5_78 = RMEMHigh
parameters Rcell_0_0_5_79 = RMEMHigh
parameters Rcell_0_0_5_80 = RMEMHigh
parameters Rcell_0_0_5_81 = RMEMHigh
parameters Rcell_0_0_5_82 = RMEMLow
parameters Rcell_0_0_5_83 = RMEMLow
parameters Rcell_0_0_5_84 = RMEMHigh
parameters Rcell_0_0_5_85 = RMEMLow
parameters Rcell_0_0_5_86 = RMEMLow
parameters Rcell_0_0_5_87 = RMEMLow
parameters Rcell_0_0_5_88 = RMEMHigh
parameters Rcell_0_0_5_89 = RMEMLow
parameters Rcell_0_0_5_90 = RMEMLow
parameters Rcell_0_0_5_91 = RMEMHigh
parameters Rcell_0_0_5_92 = RMEMHigh
parameters Rcell_0_0_5_93 = RMEMLow
parameters Rcell_0_0_5_94 = RMEMHigh
parameters Rcell_0_0_5_95 = RMEMHigh
parameters Rcell_0_0_5_96 = RMEMHigh
parameters Rcell_0_0_5_97 = RMEMLow
parameters Rcell_0_0_5_98 = RMEMHigh
parameters Rcell_0_0_5_99 = RMEMHigh
parameters Rcell_0_0_5_100 = RMEMLow
parameters Rcell_0_0_5_101 = RMEMLow
parameters Rcell_0_0_5_102 = RMEMLow
parameters Rcell_0_0_5_103 = RMEMHigh
parameters Rcell_0_0_5_104 = RMEMHigh
parameters Rcell_0_0_5_105 = RMEMHigh
parameters Rcell_0_0_5_106 = RMEMHigh
parameters Rcell_0_0_5_107 = RMEMHigh
parameters Rcell_0_0_5_108 = RMEMLow
parameters Rcell_0_0_5_109 = RMEMLow
parameters Rcell_0_0_5_110 = RMEMHigh
parameters Rcell_0_0_5_111 = RMEMLow
parameters Rcell_0_0_5_112 = RMEMLow
parameters Rcell_0_0_5_113 = RMEMHigh
parameters Rcell_0_0_5_114 = RMEMLow
parameters Rcell_0_0_5_115 = RMEMHigh
parameters Rcell_0_0_5_116 = RMEMLow
parameters Rcell_0_0_5_117 = RMEMLow
parameters Rcell_0_0_5_118 = RMEMLow
parameters Rcell_0_0_5_119 = RMEMLow
parameters Rcell_0_0_5_120 = RMEMHigh
parameters Rcell_0_0_5_121 = RMEMHigh
parameters Rcell_0_0_5_122 = RMEMLow
parameters Rcell_0_0_5_123 = RMEMLow
parameters Rcell_0_0_5_124 = RMEMHigh
parameters Rcell_0_0_5_125 = RMEMLow
parameters Rcell_0_0_5_126 = RMEMHigh
parameters Rcell_0_0_5_127 = RMEMLow
parameters Rcell_0_0_6_0 = RMEMHigh
parameters Rcell_0_0_6_1 = RMEMLow
parameters Rcell_0_0_6_2 = RMEMLow
parameters Rcell_0_0_6_3 = RMEMHigh
parameters Rcell_0_0_6_4 = RMEMLow
parameters Rcell_0_0_6_5 = RMEMHigh
parameters Rcell_0_0_6_6 = RMEMLow
parameters Rcell_0_0_6_7 = RMEMLow
parameters Rcell_0_0_6_8 = RMEMLow
parameters Rcell_0_0_6_9 = RMEMHigh
parameters Rcell_0_0_6_10 = RMEMHigh
parameters Rcell_0_0_6_11 = RMEMHigh
parameters Rcell_0_0_6_12 = RMEMLow
parameters Rcell_0_0_6_13 = RMEMLow
parameters Rcell_0_0_6_14 = RMEMHigh
parameters Rcell_0_0_6_15 = RMEMLow
parameters Rcell_0_0_6_16 = RMEMLow
parameters Rcell_0_0_6_17 = RMEMHigh
parameters Rcell_0_0_6_18 = RMEMLow
parameters Rcell_0_0_6_19 = RMEMHigh
parameters Rcell_0_0_6_20 = RMEMHigh
parameters Rcell_0_0_6_21 = RMEMHigh