
simulator lang=spectre

parameters vdd = 1

parameters PWmin = 100n                         //MinimalTransistorWidth
parameters PLmin = 45n                          //MinimalTransistorLenght
parameters WChargeBL = 3e-07         //BitLineChargerWidth(perBL)
parameters LChargeBL = 1.95e-07
parameters WDischargeBL = 1e-07   //BitLineDischargerWidth(perBL)
parameters WDischargeSL = 5e-07   //SourceLineDischargerWidth(perBL)
parameters Cpar = 0.18e-15                      //ParasiticCapacitor(perCell)
parameters PWn = 2e-07                     //DifferentialNpairWidth(perSA)
parameters PWp = 4e-07                     //DifferentialPpairWidth(perSA)
parameters PWpenable = 5e-07         //SenseAmpEnablePWidth(perSA)
parameters PWnenable = 5e-07         //SenseAmpEnableNWidth(perSA)
parameters PWmuxLB = 2e-07                //PassgateWidth(perMuxLB)
parameters PWmuxGB = 2e-07                //PassgateWidth(perMuxGB)

parameters numberofruns = 1
parameters enableMismatch = 0   //Mismatch
parameters simlength = 1.8e-08


parameters RMEMHigh = 32500;
parameters RMEMLow = 7500;

parameters Rcell_0_0_0_0 = RMEMHigh
parameters Rcell_0_0_0_1 = RMEMHigh
parameters Rcell_0_0_0_2 = RMEMHigh
parameters Rcell_0_0_0_3 = RMEMHigh
parameters Rcell_0_0_0_4 = RMEMLow
parameters Rcell_0_0_0_5 = RMEMLow
parameters Rcell_0_0_0_6 = RMEMLow
parameters Rcell_0_0_0_7 = RMEMLow
parameters Rcell_0_0_0_8 = RMEMLow
parameters Rcell_0_0_0_9 = RMEMLow
parameters Rcell_0_0_0_10 = RMEMLow
parameters Rcell_0_0_0_11 = RMEMHigh
parameters Rcell_0_0_0_12 = RMEMHigh
parameters Rcell_0_0_0_13 = RMEMHigh
parameters Rcell_0_0_0_14 = RMEMHigh
parameters Rcell_0_0_0_15 = RMEMHigh
parameters Rcell_0_0_1_0 = RMEMLow
parameters Rcell_0_0_1_1 = RMEMLow
parameters Rcell_0_0_1_2 = RMEMHigh
parameters Rcell_0_0_1_3 = RMEMLow
parameters Rcell_0_0_1_4 = RMEMHigh
parameters Rcell_0_0_1_5 = RMEMHigh
parameters Rcell_0_0_1_6 = RMEMHigh
parameters Rcell_0_0_1_7 = RMEMLow
parameters Rcell_0_0_1_8 = RMEMLow
parameters Rcell_0_0_1_9 = RMEMHigh
parameters Rcell_0_0_1_10 = RMEMHigh
parameters Rcell_0_0_1_11 = RMEMHigh
parameters Rcell_0_0_1_12 = RMEMLow
parameters Rcell_0_0_1_13 = RMEMLow
parameters Rcell_0_0_1_14 = RMEMHigh
parameters Rcell_0_0_1_15 = RMEMLow
parameters Rcell_0_0_2_0 = RMEMLow
parameters Rcell_0_0_2_1 = RMEMHigh
parameters Rcell_0_0_2_2 = RMEMLow
parameters Rcell_0_0_2_3 = RMEMLow
parameters Rcell_0_0_2_4 = RMEMHigh
parameters Rcell_0_0_2_5 = RMEMLow
parameters Rcell_0_0_2_6 = RMEMHigh
parameters Rcell_0_0_2_7 = RMEMLow
parameters Rcell_0_0_2_8 = RMEMHigh
parameters Rcell_0_0_2_9 = RMEMHigh
parameters Rcell_0_0_2_10 = RMEMLow
parameters Rcell_0_0_2_11 = RMEMLow
parameters Rcell_0_0_2_12 = RMEMLow
parameters Rcell_0_0_2_13 = RMEMLow
parameters Rcell_0_0_2_14 = RMEMLow
parameters Rcell_0_0_2_15 = RMEMLow
parameters Rcell_0_0_3_0 = RMEMHigh
parameters Rcell_0_0_3_1 = RMEMLow
parameters Rcell_0_0_3_2 = RMEMHigh
parameters Rcell_0_0_3_3 = RMEMLow
parameters Rcell_0_0_3_4 = RMEMHigh
parameters Rcell_0_0_3_5 = RMEMLow
parameters Rcell_0_0_3_6 = RMEMHigh
parameters Rcell_0_0_3_7 = RMEMHigh
parameters Rcell_0_0_3_8 = RMEMLow
parameters Rcell_0_0_3_9 = RMEMLow
parameters Rcell_0_0_3_10 = RMEMHigh
parameters Rcell_0_0_3_11 = RMEMHigh
parameters Rcell_0_0_3_12 = RMEMLow
parameters Rcell_0_0_3_13 = RMEMHigh
parameters Rcell_0_0_3_14 = RMEMLow
parameters Rcell_0_0_3_15 = RMEMHigh
parameters Rcell_0_1_0_0 = RMEMHigh
parameters Rcell_0_1_0_1 = RMEMLow
parameters Rcell_0_1_0_2 = RMEMHigh
parameters Rcell_0_1_0_3 = RMEMHigh
parameters Rcell_0_1_0_4 = RMEMHigh
parameters Rcell_0_1_0_5 = RMEMHigh
parameters Rcell_0_1_0_6 = RMEMHigh
parameters Rcell_0_1_0_7 = RMEMLow
parameters Rcell_0_1_0_8 = RMEMLow
parameters Rcell_0_1_0_9 = RMEMLow
parameters Rcell_0_1_0_10 = RMEMHigh
parameters Rcell_0_1_0_11 = RMEMHigh
parameters Rcell_0_1_0_12 = RMEMHigh
parameters Rcell_0_1_0_13 = RMEMLow
parameters Rcell_0_1_0_14 = RMEMHigh
parameters Rcell_0_1_0_15 = RMEMLow
parameters Rcell_0_1_1_0 = RMEMLow
parameters Rcell_0_1_1_1 = RMEMLow
parameters Rcell_0_1_1_2 = RMEMHigh
parameters Rcell_0_1_1_3 = RMEMLow
parameters Rcell_0_1_1_4 = RMEMLow
parameters Rcell_0_1_1_5 = RMEMLow
parameters Rcell_0_1_1_6 = RMEMLow
parameters Rcell_0_1_1_7 = RMEMLow
parameters Rcell_0_1_1_8 = RMEMHigh
parameters Rcell_0_1_1_9 = RMEMHigh
parameters Rcell_0_1_1_10 = RMEMHigh
parameters Rcell_0_1_1_11 = RMEMHigh
parameters Rcell_0_1_1_12 = RMEMHigh
parameters Rcell_0_1_1_13 = RMEMHigh
parameters Rcell_0_1_1_14 = RMEMHigh
parameters Rcell_0_1_1_15 = RMEMHigh
parameters Rcell_0_1_2_0 = RMEMLow
parameters Rcell_0_1_2_1 = RMEMHigh
parameters Rcell_0_1_2_2 = RMEMHigh
parameters Rcell_0_1_2_3 = RMEMHigh
parameters Rcell_0_1_2_4 = RMEMHigh
parameters Rcell_0_1_2_5 = RMEMLow
parameters Rcell_0_1_2_6 = RMEMHigh
parameters Rcell_0_1_2_7 = RMEMLow
parameters Rcell_0_1_2_8 = RMEMLow
parameters Rcell_0_1_2_9 = RMEMHigh
parameters Rcell_0_1_2_10 = RMEMHigh
parameters Rcell_0_1_2_11 = RMEMHigh
parameters Rcell_0_1_2_12 = RMEMHigh
parameters Rcell_0_1_2_13 = RMEMHigh
parameters Rcell_0_1_2_14 = RMEMLow
parameters Rcell_0_1_2_15 = RMEMHigh
parameters Rcell_0_1_3_0 = RMEMLow
parameters Rcell_0_1_3_1 = RMEMHigh
parameters Rcell_0_1_3_2 = RMEMHigh
parameters Rcell_0_1_3_3 = RMEMHigh
parameters Rcell_0_1_3_4 = RMEMHigh
parameters Rcell_0_1_3_5 = RMEMHigh
parameters Rcell_0_1_3_6 = RMEMHigh
parameters Rcell_0_1_3_7 = RMEMHigh
parameters Rcell_0_1_3_8 = RMEMHigh
parameters Rcell_0_1_3_9 = RMEMHigh
parameters Rcell_0_1_3_10 = RMEMLow
parameters Rcell_0_1_3_11 = RMEMLow
parameters Rcell_0_1_3_12 = RMEMHigh
parameters Rcell_0_1_3_13 = RMEMLow
parameters Rcell_0_1_3_14 = RMEMHigh
parameters Rcell_0_1_3_15 = RMEMLow

parameters Rref_0 = RMEMHigh
parameters Rref_2 = RMEMHigh
parameters Rref_1 = RMEMLow
parameters Rref_3 = RMEMLow

parameters waveEnGB_0=[0 0 1e-09 0 1.1e-09 1 5e-09 1 5.05e-09 0 6e-09 0 6.05e-09 0 7e-09 0 7.1e-09 1 1.1e-08 1 1.105e-08 0 1.2e-08 0 1.205e-08 0 1.3e-08 0 1.31e-08 1 1.7e-08 1 1.705e-08 0 1.8e-08 0 1.805e-08 0 1.9e-08 0 1.91e-08 1 2.3e-08 1 2.305e-08 0 2.4e-08 0 2.405e-08 0 2.5e-08 0 2.51e-08 1 2.9e-08 1 2.905e-08 0 3e-08 0 3.005e-08 0 3.1e-08 0 3.11e-08 1 3.5e-08 1 3.505e-08 0 3.6e-08 0 3.605e-08 0 3.7e-08 0 3.71e-08 1 4.1e-08 1 4.105e-08 0 4.2e-08 0 4.205e-08 0 4.3e-08 0 4.31e-08 1 4.7e-08 1 4.705e-08 0 4.8e-08 0 4.805e-08 0 4.9e-08 0 4.91e-08 1 5.3e-08 1 5.305e-08 0 5.4e-08 0 5.405e-08 0 5.5e-08 0 5.51e-08 1 5.9e-08 1 5.905e-08 0 6e-08 0 6.005e-08 0 6.1e-08 0 6.11e-08 1 6.5e-08 1 6.505e-08 0 6.6e-08 0 6.605e-08 0 6.7e-08 0 6.71e-08 1 7.1e-08 1 7.105e-08 0 7.2e-08 0 7.205e-08 0 7.3e-08 0 7.31e-08 1 7.7e-08 1 7.705e-08 0 7.8e-08 0 7.805e-08 0 7.9e-08 0 7.91e-08 1 8.3e-08 1 8.305e-08 0 8.4e-08 0 8.405e-08 0 8.5e-08 0 8.51e-08 1 8.9e-08 1 8.905e-08 0 9e-08 0 9.005e-08 0 9.1e-08 0 9.11e-08 1 9.5e-08 1 9.505e-08 0 9.6e-08 0 9.605e-08 0 9.7e-08 0 9.70999999999999e-08 1 1.01e-07 1 1.0105e-07 0 1.02e-07 0 1.0205e-07 0 1.03e-07 0 1.031e-07 1 1.07e-07 1 1.0705e-07 0 1.08e-07 0 1.0805e-07 0 1.09e-07 0 1.091e-07 1 1.13e-07 1 1.1305e-07 0 1.14e-07 0 1.1405e-07 0 1.15e-07 0 1.151e-07 1 1.19e-07 1 1.1905e-07 0 1.2e-07 0 1.2005e-07 0 1.21e-07 0 1.211e-07 1 1.25e-07 1 1.2505e-07 0 1.26e-07 0 1.2605e-07 0 1.27e-07 0 1.271e-07 1 1.31e-07 1 1.3105e-07 0 1.32e-07 0 1.3205e-07 0 1.33e-07 0 1.331e-07 1 1.37e-07 1 1.3705e-07 0 1.38e-07 0 1.3805e-07 0 1.39e-07 0 1.391e-07 1 1.43e-07 1 1.4305e-07 0 1.44e-07 0 1.4405e-07 0 1.45e-07 0 1.451e-07 1 1.49e-07 1 1.4905e-07 0 1.5e-07 0 1.5005e-07 0 1.51e-07 0 1.511e-07 1 1.55e-07 1 1.5505e-07 0 1.56e-07 0 1.5605e-07 0 1.57e-07 0 1.571e-07 1 1.61e-07 1 1.6105e-07 0 1.62e-07 0 1.6205e-07 0 1.63e-07 0 1.631e-07 1 1.67e-07 1 1.6705e-07 0 1.68e-07 0 1.6805e-07 0 1.69e-07 0 1.691e-07 1 1.73e-07 1 1.7305e-07 0 1.74e-07 0 1.7405e-07 0 1.75e-07 0 1.751e-07 1 1.79e-07 1 1.7905e-07 0 1.8e-07 0 1.8005e-07 0 1.81e-07 0 1.811e-07 1 1.85e-07 1 1.8505e-07 0 1.86e-07 0 1.8605e-07 0 1.87e-07 0 1.871e-07 1 1.91e-07 1 1.9105e-07 0 1.92e-07 0 1.9205e-07 0 1.93e-07 0 1.931e-07 1 1.97e-07 1 1.9705e-07 0 1.98e-07 0 1.9805e-07 0 1.99e-07 0 1.991e-07 1 2.03e-07 1 2.0305e-07 0 2.04e-07 0 2.0405e-07 0 2.05e-07 0 2.051e-07 1 2.09e-07 1 2.0905e-07 0 2.1e-07 0 2.1005e-07 0 2.11e-07 0 2.111e-07 1 2.15e-07 1 2.1505e-07 0 2.16e-07 0 2.1605e-07 0 2.17e-07 0 2.171e-07 1 2.21e-07 1 2.2105e-07 0 2.22e-07 0 2.2205e-07 0 2.23e-07 0 2.231e-07 1 2.27e-07 1 2.2705e-07 0 2.28e-07 0 2.2805e-07 0 2.29e-07 0 2.291e-07 1 2.33e-07 1 2.3305e-07 0 2.34e-07 0 2.3405e-07 0 2.35e-07 0 2.351e-07 1 2.39e-07 1 2.3905e-07 0 2.4e-07 0 2.4005e-07 0 2.41e-07 0 2.411e-07 1 2.45e-07 1 2.4505e-07 0 2.46e-07 0 2.4605e-07 0 2.47e-07 0 2.471e-07 1 2.51e-07 1 2.5105e-07 0 2.52e-07 0 2.5205e-07 0 2.53e-07 0 2.531e-07 1 2.57e-07 1 2.5705e-07 0 2.58e-07 0 2.5805e-07 0 2.59e-07 0 2.591e-07 1 2.63e-07 1 2.6305e-07 0 2.64e-07 0 2.6405e-07 0 2.65e-07 0 2.651e-07 1 2.69e-07 1 2.6905e-07 0 2.7e-07 0 2.7005e-07 0 2.71e-07 0 2.711e-07 1 2.75e-07 1 2.7505e-07 0 2.76e-07 0 2.7605e-07 0 2.77e-07 0 2.771e-07 1 2.81e-07 1 2.8105e-07 0 2.82e-07 0 2.8205e-07 0 2.83e-07 0 2.831e-07 1 2.87e-07 1 2.8705e-07 0 2.88e-07 0 2.8805e-07 0 2.89e-07 0 2.891e-07 1 2.93e-07 1 2.9305e-07 0 2.94e-07 0 2.9405e-07 0 2.95e-07 0 2.951e-07 1 2.99e-07 1 2.9905e-07 0 3e-07 0 3.0005e-07 0 3.01e-07 0 3.011e-07 1 3.05e-07 1 3.0505e-07 0 3.06e-07 0 3.0605e-07 0 3.07e-07 0 3.071e-07 1 3.11e-07 1 3.1105e-07 0 3.12e-07 0 3.1205e-07 0 3.13e-07 0 3.131e-07 1 3.17e-07 1 3.1705e-07 0 3.18e-07 0 3.1805e-07 0 3.19e-07 0 3.191e-07 1 3.23e-07 1 3.2305e-07 0 3.24e-07 0 3.2405e-07 0 3.25e-07 0 3.251e-07 1 3.29e-07 1 3.2905e-07 0 3.3e-07 0 3.3005e-07 0 3.31e-07 0 3.311e-07 1 3.35e-07 1 3.3505e-07 0 3.36e-07 0 3.3605e-07 0 3.37e-07 0 3.371e-07 1 3.41e-07 1 3.4105e-07 0 3.42e-07 0 3.4205e-07 0 3.43e-07 0 3.431e-07 1 3.47e-07 1 3.4705e-07 0 3.48e-07 0 3.4805e-07 0 3.49e-07 0 3.491e-07 1 3.53e-07 1 3.5305e-07 0 3.54e-07 0 3.5405e-07 0 3.55e-07 0 3.551e-07 1 3.59e-07 1 3.5905e-07 0 3.6e-07 0 3.6005e-07 0 3.61e-07 0 3.61100000000001e-07 1 3.65e-07 1 3.6505e-07 0 3.66e-07 0 3.66050000000001e-07 0 3.67000000000001e-07 0 3.67100000000001e-07 1 3.71000000000001e-07 1 3.71050000000001e-07 0 3.72000000000001e-07 0 3.72050000000001e-07 0 3.73000000000001e-07 0 3.73100000000001e-07 1 3.77000000000001e-07 1 3.77050000000001e-07 0 3.78000000000001e-07 0 3.78050000000001e-07 0 3.79000000000001e-07 0 3.79100000000001e-07 1 3.83000000000001e-07 1 3.83050000000001e-07 0 3.84000000000001e-07 0 3.84050000000001e-07 0 3.85000000000001e-07 0 3.85100000000001e-07 1 3.89000000000001e-07 1 3.89050000000001e-07 0 3.90000000000001e-07 0 3.90050000000001e-07 0 3.91000000000001e-07 0 3.91100000000001e-07 1 3.95000000000001e-07 1 3.95050000000001e-07 0 3.96000000000001e-07 0 3.96050000000001e-07 0 3.97000000000001e-07 0 3.97100000000001e-07 1 4.01000000000001e-07 1 4.01050000000001e-07 0 4.02000000000001e-07 0 4.02050000000001e-07 0 4.03000000000001e-07 0 4.03100000000001e-07 1 4.07000000000001e-07 1 4.07050000000001e-07 0 4.08000000000001e-07 0 4.08050000000001e-07 0 4.09000000000001e-07 0 4.09100000000001e-07 1 4.13000000000001e-07 1 4.13050000000001e-07 0 4.14000000000001e-07 0 4.14050000000001e-07 0 4.15000000000001e-07 0 4.15100000000001e-07 1 4.19000000000001e-07 1 4.19050000000001e-07 0 4.20000000000001e-07 0 4.20050000000001e-07 0 4.21000000000001e-07 0 4.21100000000001e-07 1 4.25000000000001e-07 1 4.25050000000001e-07 0 4.26000000000001e-07 0 4.26050000000001e-07 0 4.27000000000001e-07 0 4.27100000000001e-07 1 4.31000000000001e-07 1 4.31050000000001e-07 0 4.32000000000001e-07 0 4.32050000000001e-07 0 4.33000000000001e-07 0 4.33100000000001e-07 1 4.37000000000001e-07 1 4.37050000000001e-07 0 4.38000000000001e-07 0 4.38050000000001e-07 0 4.39000000000001e-07 0 4.39100000000001e-07 1 4.43000000000001e-07 1 4.43050000000001e-07 0 4.44000000000001e-07 0 4.44050000000001e-07 0 4.45000000000001e-07 0 4.45100000000001e-07 1 4.49000000000001e-07 1 4.49050000000001e-07 0 4.50000000000001e-07 0 4.50050000000001e-07 0 4.51000000000001e-07 0 4.51100000000001e-07 1 4.55000000000001e-07 1 4.55050000000001e-07 0 4.56000000000001e-07 0 4.56050000000001e-07 0 4.57000000000001e-07 0 4.57100000000001e-07 1 4.61000000000001e-07 1 4.61050000000001e-07 0 4.62000000000001e-07 0 4.62050000000001e-07 0 4.63000000000001e-07 0 4.63100000000001e-07 1 4.67000000000001e-07 1 4.67050000000001e-07 0 4.68000000000001e-07 0 4.68050000000001e-07 0 4.69000000000001e-07 0 4.69100000000001e-07 1 4.73000000000001e-07 1 4.73050000000001e-07 0 4.74000000000001e-07 0 4.74050000000001e-07 0 4.75000000000001e-07 0 4.75100000000001e-07 1 4.79000000000001e-07 1 4.79050000000001e-07 0 4.80000000000001e-07 0 4.80050000000001e-07 0 4.81000000000001e-07 0 4.81100000000001e-07 1 4.85000000000001e-07 1 4.85050000000001e-07 0 4.86000000000001e-07 0 4.86050000000001e-07 0 4.87000000000001e-07 0 4.87100000000001e-07 1 4.91000000000001e-07 1 4.91050000000001e-07 0 4.92000000000001e-07 0 4.92050000000001e-07 0 4.93000000000001e-07 0 4.93100000000001e-07 1 4.97000000000001e-07 1 4.97050000000001e-07 0 4.98000000000001e-07 0 4.98050000000001e-07 0 4.99000000000001e-07 0 4.99100000000001e-07 1 5.03000000000001e-07 1 5.03050000000001e-07 0 5.04000000000001e-07 0 5.04050000000001e-07 0 5.05000000000001e-07 0 5.05100000000001e-07 1 5.09000000000001e-07 1 5.09050000000001e-07 0 5.10000000000001e-07 0 5.10050000000001e-07 0 5.11000000000001e-07 0 5.11100000000001e-07 1 5.15000000000001e-07 1 5.15050000000001e-07 0 5.16000000000001e-07 0 5.16050000000001e-07 0 5.17000000000001e-07 0 5.17100000000001e-07 1 5.21e-07 1 5.21050000000001e-07 0 5.22e-07 0 5.2205e-07 0 5.23e-07 0 5.231e-07 1 5.27e-07 1 5.2705e-07 0 5.28e-07 0 5.2805e-07 0 5.29e-07 0 5.291e-07 1 5.33e-07 1 5.3305e-07 0 5.34e-07 0 5.3405e-07 0 5.35e-07 0 5.351e-07 1 5.39e-07 1 5.3905e-07 0 5.4e-07 0 5.4005e-07 0 5.41e-07 0 5.411e-07 1 5.45e-07 1 5.4505e-07 0 5.46e-07 0 5.4605e-07 0 5.47e-07 0 5.471e-07 1 5.51e-07 1 5.5105e-07 0 5.52e-07 0 5.5205e-07 0 5.53e-07 0 5.531e-07 1 5.57e-07 1 5.5705e-07 0 5.58e-07 0 5.5805e-07 0 5.59e-07 0 5.591e-07 1 5.63e-07 1 5.6305e-07 0 5.64e-07 0 5.6405e-07 0 5.65e-07 0 5.651e-07 1 5.69e-07 1 5.6905e-07 0 5.7e-07 0 5.7005e-07 0 5.71e-07 0 5.711e-07 1 5.75e-07 1 5.7505e-07 0 5.76e-07 0 5.7605e-07 0 5.77e-07 0 5.771e-07 1 5.81e-07 1 5.8105e-07 0 5.82e-07 0 5.8205e-07 0 5.83e-07 0 5.831e-07 1 5.87e-07 1 5.8705e-07 0 5.88e-07 0 5.8805e-07 0 5.89e-07 0 5.891e-07 1 5.93e-07 1 5.9305e-07 0 5.94e-07 0 5.9405e-07 0 5.94999999999999e-07 0 5.95099999999999e-07 1 5.98999999999999e-07 1 5.99049999999999e-07 0 5.99999999999999e-07 0 6.00049999999999e-07 0 6.00999999999999e-07 0 6.01099999999999e-07 1 6.04999999999999e-07 1 6.05049999999999e-07 0 6.05999999999999e-07 0 6.06049999999999e-07 0 6.06999999999999e-07 0 6.07099999999999e-07 1 6.10999999999999e-07 1 6.11049999999999e-07 0 6.11999999999999e-07 0 6.12049999999999e-07 0 6.12999999999999e-07 0 6.13099999999999e-07 1 6.16999999999999e-07 1 6.17049999999999e-07 0 6.17999999999999e-07 0 6.18049999999999e-07 0 6.18999999999999e-07 0 6.19099999999999e-07 1 6.22999999999999e-07 1 6.23049999999999e-07 0 6.23999999999999e-07 0 6.24049999999999e-07 0 6.24999999999999e-07 0 6.25099999999999e-07 1 6.28999999999999e-07 1 6.29049999999999e-07 0 6.29999999999999e-07 0 6.30049999999999e-07 0 6.30999999999999e-07 0 6.31099999999999e-07 1 6.34999999999999e-07 1 6.35049999999999e-07 0 6.35999999999999e-07 0 6.36049999999999e-07 0 6.36999999999999e-07 0 6.37099999999999e-07 1 6.40999999999999e-07 1 6.41049999999999e-07 0 6.41999999999999e-07 0 6.42049999999999e-07 0 6.42999999999999e-07 0 6.43099999999999e-07 1 6.46999999999999e-07 1 6.47049999999999e-07 0 6.47999999999999e-07 0 6.48049999999999e-07 0 6.48999999999999e-07 0 6.49099999999999e-07 1 6.52999999999999e-07 1 6.53049999999999e-07 0 6.53999999999999e-07 0 6.54049999999999e-07 0 6.54999999999999e-07 0 6.55099999999999e-07 1 6.58999999999999e-07 1 6.59049999999999e-07 0 6.59999999999999e-07 0 6.60049999999999e-07 0 6.60999999999999e-07 0 6.61099999999999e-07 1 6.64999999999999e-07 1 6.65049999999999e-07 0 6.65999999999999e-07 0 6.66049999999999e-07 0 6.66999999999999e-07 0 6.67099999999999e-07 1 6.70999999999999e-07 1 6.71049999999999e-07 0 6.71999999999998e-07 0 6.72049999999999e-07 0 6.72999999999998e-07 0 6.73099999999998e-07 1 6.76999999999998e-07 1 6.77049999999998e-07 0 6.77999999999998e-07 0 6.78049999999998e-07 0 6.78999999999998e-07 0 6.79099999999998e-07 1 6.82999999999998e-07 1 6.83049999999998e-07 0 6.83999999999998e-07 0 6.84049999999998e-07 0 6.84999999999998e-07 0 6.85099999999998e-07 1 6.88999999999998e-07 1 6.89049999999998e-07 0 6.89999999999998e-07 0 6.90049999999998e-07 0 6.90999999999998e-07 0 6.91099999999998e-07 1 6.94999999999998e-07 1 6.95049999999998e-07 0 6.95999999999998e-07 0 6.96049999999998e-07 0 6.96999999999998e-07 0 6.97099999999998e-07 1 7.00999999999998e-07 1 7.01049999999998e-07 0 7.01999999999998e-07 0 7.02049999999998e-07 0 7.02999999999998e-07 0 7.03099999999998e-07 1 7.06999999999998e-07 1 7.07049999999998e-07 0 7.07999999999998e-07 0 7.08049999999998e-07 0 7.08999999999998e-07 0 7.09099999999998e-07 1 7.12999999999998e-07 1 7.13049999999998e-07 0 7.13999999999998e-07 0 7.14049999999998e-07 0 7.14999999999998e-07 0 7.15099999999998e-07 1 7.18999999999998e-07 1 7.19049999999998e-07 0 7.19999999999998e-07 0 7.20049999999998e-07 0 7.20999999999998e-07 0 7.21099999999998e-07 1 7.24999999999998e-07 1 7.25049999999998e-07 0 7.25999999999998e-07 0 7.26049999999998e-07 0 7.26999999999998e-07 0 7.27099999999998e-07 1 7.30999999999998e-07 1 7.31049999999998e-07 0 7.31999999999998e-07 0 7.32049999999998e-07 0 7.32999999999998e-07 0 7.33099999999998e-07 1 7.36999999999998e-07 1 7.37049999999998e-07 0 7.37999999999998e-07 0 7.38049999999998e-07 0 7.38999999999998e-07 0 7.39099999999998e-07 1 7.42999999999998e-07 1 7.43049999999998e-07 0 7.43999999999998e-07 0 7.44049999999998e-07 0 7.44999999999998e-07 0 7.45099999999998e-07 1 7.48999999999998e-07 1 7.49049999999998e-07 0 7.49999999999997e-07 0 7.50049999999997e-07 0 7.50999999999997e-07 0 7.51099999999997e-07 1 7.54999999999997e-07 1 7.55049999999997e-07 0 7.55999999999997e-07 0 7.56049999999997e-07 0 7.56999999999997e-07 0 7.57099999999997e-07 1 7.60999999999997e-07 1 7.61049999999997e-07 0 7.61999999999997e-07 0 7.62049999999997e-07 0 7.62999999999997e-07 0 7.63099999999997e-07 1 7.66999999999997e-07 1 7.67049999999997e-07 0 7.72499999999997e-07 0]