simulator lang=spice
.lib 'tech_wrapper.lib' tt

simulator lang=spice
.lib 'tech_wrapper.lib' tt

simulator lang=spectre

include "monte_carlo_models.scs"
include "globalblock.sp"
include "drivers.sp"
include "parameters.sp"

xDrivers (vdd vss NBulkLine PBulkLine
+ BLenc_start_0 BLenc_start_1 BLenc_start_2 BLenc_start_3 BLenc_start_4
+ WLenc_start_0 WLenc_start_1 WLenc_start_2 WLenc_start_3 WLenc_start_4 WLenc_start_5 WLenc_start_6
+ BLenc_0_0_0 BLenc_0_0_1 BLenc_0_0_2 BLenc_0_0_3 BLenc_0_0_4 BLenc_0_1_0 BLenc_0_1_1 BLenc_0_1_2 BLenc_0_1_3 BLenc_0_1_4
+ WLenc_0_0_0 WLenc_0_0_1 WLenc_0_0_2 WLenc_0_0_3 WLenc_0_0_4 WLenc_0_0_5 WLenc_0_0_6 WLenc_0_1_0 WLenc_0_1_1 WLenc_0_1_2 WLenc_0_1_3 WLenc_0_1_4 WLenc_0_1_5 WLenc_0_1_6
+ GBenable_0
+ LBenable_0 LBenable_1) drivers

xNot_0_0 (GBenable_0 GBenable_0_1 vdd vss PBulkLine NBulkLine) inverter
xNot_0_1 (GBenable_0_1 GBenable_0_2 vdd vss PBulkLine NBulkLine) inverter
xNot_0_2 (GBenable_0_2 GBenable_0_3 vdd vss PBulkLine NBulkLine) inverter
xNot_0_3 (GBenable_0_3 GBenable_0_4 vdd vss PBulkLine NBulkLine) inverter
xNot_0_4 (GBenable_0_4 GBenable_0_5 vdd vss PBulkLine NBulkLine) inverter
xNot_0_5 (GBenable_0_5 Delay_0 vdd vss PBulkLine NBulkLine) inverter

xNot_ref_0 (LBenable_0 LBenbar_0 vdd vss PBulkLine NBulkLine) inverter
xNot_ref_1 (LBenable_1 LBenbar_1 vdd vss PBulkLine NBulkLine) inverter 

xNand_ref_0_0 (LBenbar_0 GBenable_0 tempnand_0_0 vdd vss PBulkLine NBulkLine) twonand
xNot_ref_0_0 (tempnand_0_0 Refenable_0 vdd vss PBulkLine NBulkLine) inverter
xNand_ref_0_1 (LBenbar_1 GBenable_0 tempnand_0_1 vdd vss PBulkLine NBulkLine) twonand
xNot_ref_0_1 (tempnand_0_1 Refenable_1 vdd vss PBulkLine NBulkLine) inverter

xGB0 (vdd vss NBulkLine PBulkLine
+WLenc_0_0_0 WLenc_0_0_1 WLenc_0_0_2 WLenc_0_0_3 WLenc_0_0_4 WLenc_0_0_5 WLenc_0_0_6 WLenc_0_1_0 WLenc_0_1_1 WLenc_0_1_2 WLenc_0_1_3 WLenc_0_1_4 WLenc_0_1_5 WLenc_0_1_6
+BLenc_0_0_0 BLenc_0_0_1 BLenc_0_0_2 BLenc_0_0_3 BLenc_0_0_4 BLenc_0_1_0 BLenc_0_1_1 BLenc_0_1_2 BLenc_0_1_3 BLenc_0_1_4
+LBenable_0 LBenable_1 Refenable_0 Refenable_1
+InOut_0 InOutbar_0 SA_SH_0 EnableSAP_0 EnableSAN_0 Delay_0)       
+globalblock Rcell_0_0_0 = Rcell_0_0_0_0 Rcell_0_0_1 = Rcell_0_0_0_1 Rcell_0_0_2 = Rcell_0_0_0_2 Rcell_0_0_3 = Rcell_0_0_0_3 Rcell_0_0_4 = Rcell_0_0_0_4 Rcell_0_0_5 = Rcell_0_0_0_5 Rcell_0_0_6 = Rcell_0_0_0_6 Rcell_0_0_7 = Rcell_0_0_0_7 Rcell_0_0_8 = Rcell_0_0_0_8 Rcell_0_0_9 = Rcell_0_0_0_9 Rcell_0_0_10 = Rcell_0_0_0_10 Rcell_0_0_11 = Rcell_0_0_0_11 Rcell_0_0_12 = Rcell_0_0_0_12 Rcell_0_0_13 = Rcell_0_0_0_13 Rcell_0_0_14 = Rcell_0_0_0_14 Rcell_0_0_15 = Rcell_0_0_0_15 Rcell_0_0_16 = Rcell_0_0_0_16 Rcell_0_0_17 = Rcell_0_0_0_17 Rcell_0_0_18 = Rcell_0_0_0_18 Rcell_0_0_19 = Rcell_0_0_0_19 Rcell_0_0_20 = Rcell_0_0_0_20 Rcell_0_0_21 = Rcell_0_0_0_21 Rcell_0_0_22 = Rcell_0_0_0_22 Rcell_0_0_23 = Rcell_0_0_0_23 Rcell_0_0_24 = Rcell_0_0_0_24 Rcell_0_0_25 = Rcell_0_0_0_25 Rcell_0_0_26 = Rcell_0_0_0_26 Rcell_0_0_27 = Rcell_0_0_0_27 Rcell_0_0_28 = Rcell_0_0_0_28 Rcell_0_0_29 = Rcell_0_0_0_29 Rcell_0_0_30 = Rcell_0_0_0_30 Rcell_0_0_31 = Rcell_0_0_0_31 Rcell_0_0_32 = Rcell_0_0_0_32 Rcell_0_0_33 = Rcell_0_0_0_33 Rcell_0_0_34 = Rcell_0_0_0_34 Rcell_0_0_35 = Rcell_0_0_0_35 Rcell_0_0_36 = Rcell_0_0_0_36 Rcell_0_0_37 = Rcell_0_0_0_37 Rcell_0_0_38 = Rcell_0_0_0_38 Rcell_0_0_39 = Rcell_0_0_0_39 Rcell_0_0_40 = Rcell_0_0_0_40 Rcell_0_0_41 = Rcell_0_0_0_41 Rcell_0_0_42 = Rcell_0_0_0_42 Rcell_0_0_43 = Rcell_0_0_0_43 Rcell_0_0_44 = Rcell_0_0_0_44 Rcell_0_0_45 = Rcell_0_0_0_45 Rcell_0_0_46 = Rcell_0_0_0_46 Rcell_0_0_47 = Rcell_0_0_0_47 Rcell_0_0_48 = Rcell_0_0_0_48 Rcell_0_0_49 = Rcell_0_0_0_49 Rcell_0_0_50 = Rcell_0_0_0_50 Rcell_0_0_51 = Rcell_0_0_0_51 Rcell_0_0_52 = Rcell_0_0_0_52 Rcell_0_0_53 = Rcell_0_0_0_53 Rcell_0_0_54 = Rcell_0_0_0_54 Rcell_0_0_55 = Rcell_0_0_0_55 Rcell_0_0_56 = Rcell_0_0_0_56 Rcell_0_0_57 = Rcell_0_0_0_57 Rcell_0_0_58 = Rcell_0_0_0_58 Rcell_0_0_59 = Rcell_0_0_0_59 Rcell_0_0_60 = Rcell_0_0_0_60 Rcell_0_0_61 = Rcell_0_0_0_61 Rcell_0_0_62 = Rcell_0_0_0_62 Rcell_0_0_63 = Rcell_0_0_0_63 Rcell_0_0_64 = Rcell_0_0_0_64 Rcell_0_0_65 = Rcell_0_0_0_65 Rcell_0_0_66 = Rcell_0_0_0_66 Rcell_0_0_67 = Rcell_0_0_0_67 Rcell_0_0_68 = Rcell_0_0_0_68 Rcell_0_0_69 = Rcell_0_0_0_69 Rcell_0_0_70 = Rcell_0_0_0_70 Rcell_0_0_71 = Rcell_0_0_0_71 Rcell_0_0_72 = Rcell_0_0_0_72 Rcell_0_0_73 = Rcell_0_0_0_73 Rcell_0_0_74 = Rcell_0_0_0_74 Rcell_0_0_75 = Rcell_0_0_0_75 Rcell_0_0_76 = Rcell_0_0_0_76 Rcell_0_0_77 = Rcell_0_0_0_77 Rcell_0_0_78 = Rcell_0_0_0_78 Rcell_0_0_79 = Rcell_0_0_0_79 Rcell_0_0_80 = Rcell_0_0_0_80 Rcell_0_0_81 = Rcell_0_0_0_81 Rcell_0_0_82 = Rcell_0_0_0_82 Rcell_0_0_83 = Rcell_0_0_0_83 Rcell_0_0_84 = Rcell_0_0_0_84 Rcell_0_0_85 = Rcell_0_0_0_85 Rcell_0_0_86 = Rcell_0_0_0_86 Rcell_0_0_87 = Rcell_0_0_0_87 Rcell_0_0_88 = Rcell_0_0_0_88 Rcell_0_0_89 = Rcell_0_0_0_89 Rcell_0_0_90 = Rcell_0_0_0_90 Rcell_0_0_91 = Rcell_0_0_0_91 Rcell_0_0_92 = Rcell_0_0_0_92 Rcell_0_0_93 = Rcell_0_0_0_93 Rcell_0_0_94 = Rcell_0_0_0_94 Rcell_0_0_95 = Rcell_0_0_0_95 Rcell_0_0_96 = Rcell_0_0_0_96 Rcell_0_0_97 = Rcell_0_0_0_97 Rcell_0_0_98 = Rcell_0_0_0_98 Rcell_0_0_99 = Rcell_0_0_0_99 Rcell_0_0_100 = Rcell_0_0_0_100 Rcell_0_0_101 = Rcell_0_0_0_101 Rcell_0_0_102 = Rcell_0_0_0_102 Rcell_0_0_103 = Rcell_0_0_0_103 Rcell_0_0_104 = Rcell_0_0_0_104 Rcell_0_0_105 = Rcell_0_0_0_105 Rcell_0_0_106 = Rcell_0_0_0_106 Rcell_0_0_107 = Rcell_0_0_0_107 Rcell_0_0_108 = Rcell_0_0_0_108 Rcell_0_0_109 = Rcell_0_0_0_109 Rcell_0_0_110 = Rcell_0_0_0_110 Rcell_0_0_111 = Rcell_0_0_0_111 Rcell_0_0_112 = Rcell_0_0_0_112 Rcell_0_0_113 = Rcell_0_0_0_113 Rcell_0_0_114 = Rcell_0_0_0_114 Rcell_0_0_115 = Rcell_0_0_0_115 Rcell_0_0_116 = Rcell_0_0_0_116 Rcell_0_0_117 = Rcell_0_0_0_117 Rcell_0_0_118 = Rcell_0_0_0_118 Rcell_0_0_119 = Rcell_0_0_0_119 Rcell_0_0_120 = Rcell_0_0_0_120 Rcell_0_0_121 = Rcell_0_0_0_121 Rcell_0_0_122 = Rcell_0_0_0_122 Rcell_0_0_123 = Rcell_0_0_0_123 Rcell_0_0_124 = Rcell_0_0_0_124 Rcell_0_0_125 = Rcell_0_0_0_125 Rcell_0_0_126 = Rcell_0_0_0_126 Rcell_0_0_127 = Rcell_0_0_0_127 Rcell_0_1_0 = Rcell_0_0_1_0 Rcell_0_1_1 = Rcell_0_0_1_1 Rcell_0_1_2 = Rcell_0_0_1_2 Rcell_0_1_3 = Rcell_0_0_1_3 Rcell_0_1_4 = Rcell_0_0_1_4 Rcell_0_1_5 = Rcell_0_0_1_5 Rcell_0_1_6 = Rcell_0_0_1_6 Rcell_0_1_7 = Rcell_0_0_1_7 Rcell_0_1_8 = Rcell_0_0_1_8 Rcell_0_1_9 = Rcell_0_0_1_9 Rcell_0_1_10 = Rcell_0_0_1_10 Rcell_0_1_11 = Rcell_0_0_1_11 Rcell_0_1_12 = Rcell_0_0_1_12 Rcell_0_1_13 = Rcell_0_0_1_13 Rcell_0_1_14 = Rcell_0_0_1_14 Rcell_0_1_15 = Rcell_0_0_1_15 Rcell_0_1_16 = Rcell_0_0_1_16 Rcell_0_1_17 = Rcell_0_0_1_17 Rcell_0_1_18 = Rcell_0_0_1_18 Rcell_0_1_19 = Rcell_0_0_1_19 Rcell_0_1_20 = Rcell_0_0_1_20 Rcell_0_1_21 = Rcell_0_0_1_21 Rcell_0_1_22 = Rcell_0_0_1_22 Rcell_0_1_23 = Rcell_0_0_1_23 Rcell_0_1_24 = Rcell_0_0_1_24 Rcell_0_1_25 = Rcell_0_0_1_25 Rcell_0_1_26 = Rcell_0_0_1_26 Rcell_0_1_27 = Rcell_0_0_1_27 Rcell_0_1_28 = Rcell_0_0_1_28 Rcell_0_1_29 = Rcell_0_0_1_29 Rcell_0_1_30 = Rcell_0_0_1_30 Rcell_0_1_31 = Rcell_0_0_1_31 Rcell_0_1_32 = Rcell_0_0_1_32 Rcell_0_1_33 = Rcell_0_0_1_33 Rcell_0_1_34 = Rcell_0_0_1_34 Rcell_0_1_35 = Rcell_0_0_1_35 Rcell_0_1_36 = Rcell_0_0_1_36 Rcell_0_1_37 = Rcell_0_0_1_37 Rcell_0_1_38 = Rcell_0_0_1_38 Rcell_0_1_39 = Rcell_0_0_1_39 Rcell_0_1_40 = Rcell_0_0_1_40 Rcell_0_1_41 = Rcell_0_0_1_41 Rcell_0_1_42 = Rcell_0_0_1_42 Rcell_0_1_43 = Rcell_0_0_1_43 Rcell_0_1_44 = Rcell_0_0_1_44 Rcell_0_1_45 = Rcell_0_0_1_45 Rcell_0_1_46 = Rcell_0_0_1_46 Rcell_0_1_47 = Rcell_0_0_1_47 Rcell_0_1_48 = Rcell_0_0_1_48 Rcell_0_1_49 = Rcell_0_0_1_49 Rcell_0_1_50 = Rcell_0_0_1_50 Rcell_0_1_51 = Rcell_0_0_1_51 Rcell_0_1_52 = Rcell_0_0_1_52 Rcell_0_1_53 = Rcell_0_0_1_53 Rcell_0_1_54 = Rcell_0_0_1_54 Rcell_0_1_55 = Rcell_0_0_1_55 Rcell_0_1_56 = Rcell_0_0_1_56 Rcell_0_1_57 = Rcell_0_0_1_57 Rcell_0_1_58 = Rcell_0_0_1_58 Rcell_0_1_59 = Rcell_0_0_1_59 Rcell_0_1_60 = Rcell_0_0_1_60 Rcell_0_1_61 = Rcell_0_0_1_61 Rcell_0_1_62 = Rcell_0_0_1_62 Rcell_0_1_63 = Rcell_0_0_1_63 Rcell_0_1_64 = Rcell_0_0_1_64 Rcell_0_1_65 = Rcell_0_0_1_65 Rcell_0_1_66 = Rcell_0_0_1_66 Rcell_0_1_67 = Rcell_0_0_1_67 Rcell_0_1_68 = Rcell_0_0_1_68 Rcell_0_1_69 = Rcell_0_0_1_69 Rcell_0_1_70 = Rcell_0_0_1_70 Rcell_0_1_71 = Rcell_0_0_1_71 Rcell_0_1_72 = Rcell_0_0_1_72 Rcell_0_1_73 = Rcell_0_0_1_73 Rcell_0_1_74 = Rcell_0_0_1_74 Rcell_0_1_75 = Rcell_0_0_1_75 Rcell_0_1_76 = Rcell_0_0_1_76 Rcell_0_1_77 = Rcell_0_0_1_77 Rcell_0_1_78 = Rcell_0_0_1_78 Rcell_0_1_79 = Rcell_0_0_1_79 Rcell_0_1_80 = Rcell_0_0_1_80 Rcell_0_1_81 = Rcell_0_0_1_81 Rcell_0_1_82 = Rcell_0_0_1_82 Rcell_0_1_83 = Rcell_0_0_1_83 Rcell_0_1_84 = Rcell_0_0_1_84 Rcell_0_1_85 = Rcell_0_0_1_85 Rcell_0_1_86 = Rcell_0_0_1_86 Rcell_0_1_87 = Rcell_0_0_1_87 Rcell_0_1_88 = Rcell_0_0_1_88 Rcell_0_1_89 = Rcell_0_0_1_89 Rcell_0_1_90 = Rcell_0_0_1_90 Rcell_0_1_91 = Rcell_0_0_1_91 Rcell_0_1_92 = Rcell_0_0_1_92 Rcell_0_1_93 = Rcell_0_0_1_93 Rcell_0_1_94 = Rcell_0_0_1_94 Rcell_0_1_95 = Rcell_0_0_1_95 Rcell_0_1_96 = Rcell_0_0_1_96 Rcell_0_1_97 = Rcell_0_0_1_97 Rcell_0_1_98 = Rcell_0_0_1_98 Rcell_0_1_99 = Rcell_0_0_1_99 Rcell_0_1_100 = Rcell_0_0_1_100 Rcell_0_1_101 = Rcell_0_0_1_101 Rcell_0_1_102 = Rcell_0_0_1_102 Rcell_0_1_103 = Rcell_0_0_1_103 Rcell_0_1_104 = Rcell_0_0_1_104 Rcell_0_1_105 = Rcell_0_0_1_105 Rcell_0_1_106 = Rcell_0_0_1_106 Rcell_0_1_107 = Rcell_0_0_1_107 Rcell_0_1_108 = Rcell_0_0_1_108 Rcell_0_1_109 = Rcell_0_0_1_109 Rcell_0_1_110 = Rcell_0_0_1_110 Rcell_0_1_111 = Rcell_0_0_1_111 Rcell_0_1_112 = Rcell_0_0_1_112 Rcell_0_1_113 = Rcell_0_0_1_113 Rcell_0_1_114 = Rcell_0_0_1_114 Rcell_0_1_115 = Rcell_0_0_1_115 Rcell_0_1_116 = Rcell_0_0_1_116 Rcell_0_1_117 = Rcell_0_0_1_117 Rcell_0_1_118 = Rcell_0_0_1_118 Rcell_0_1_119 = Rcell_0_0_1_119 Rcell_0_1_120 = Rcell_0_0_1_120 Rcell_0_1_121 = Rcell_0_0_1_121 Rcell_0_1_122 = Rcell_0_0_1_122 Rcell_0_1_123 = Rcell_0_0_1_123 Rcell_0_1_124 = Rcell_0_0_1_124 Rcell_0_1_125 = Rcell_0_0_1_125 Rcell_0_1_126 = Rcell_0_0_1_126 Rcell_0_1_127 = Rcell_0_0_1_127 Rcell_0_2_0 = Rcell_0_0_2_0 Rcell_0_2_1 = Rcell_0_0_2_1 Rcell_0_2_2 = Rcell_0_0_2_2 Rcell_0_2_3 = Rcell_0_0_2_3 Rcell_0_2_4 = Rcell_0_0_2_4 Rcell_0_2_5 = Rcell_0_0_2_5 Rcell_0_2_6 = Rcell_0_0_2_6 Rcell_0_2_7 = Rcell_0_0_2_7 Rcell_0_2_8 = Rcell_0_0_2_8 Rcell_0_2_9 = Rcell_0_0_2_9 Rcell_0_2_10 = Rcell_0_0_2_10 Rcell_0_2_11 = Rcell_0_0_2_11 Rcell_0_2_12 = Rcell_0_0_2_12 Rcell_0_2_13 = Rcell_0_0_2_13 Rcell_0_2_14 = Rcell_0_0_2_14 Rcell_0_2_15 = Rcell_0_0_2_15 Rcell_0_2_16 = Rcell_0_0_2_16 Rcell_0_2_17 = Rcell_0_0_2_17 Rcell_0_2_18 = Rcell_0_0_2_18 Rcell_0_2_19 = Rcell_0_0_2_19 Rcell_0_2_20 = Rcell_0_0_2_20 Rcell_0_2_21 = Rcell_0_0_2_21 Rcell_0_2_22 = Rcell_0_0_2_22 Rcell_0_2_23 = Rcell_0_0_2_23 Rcell_0_2_24 = Rcell_0_0_2_24 Rcell_0_2_25 = Rcell_0_0_2_25 Rcell_0_2_26 = Rcell_0_0_2_26 Rcell_0_2_27 = Rcell_0_0_2_27 Rcell_0_2_28 = Rcell_0_0_2_28 Rcell_0_2_29 = Rcell_0_0_2_29 Rcell_0_2_30 = Rcell_0_0_2_30 Rcell_0_2_31 = Rcell_0_0_2_31 Rcell_0_2_32 = Rcell_0_0_2_32 Rcell_0_2_33 = Rcell_0_0_2_33 Rcell_0_2_34 = Rcell_0_0_2_34 Rcell_0_2_35 = Rcell_0_0_2_35 Rcell_0_2_36 = Rcell_0_0_2_36 Rcell_0_2_37 = Rcell_0_0_2_37 Rcell_0_2_38 = Rcell_0_0_2_38 Rcell_0_2_39 = Rcell_0_0_2_39 Rcell_0_2_40 = Rcell_0_0_2_40 Rcell_0_2_41 = Rcell_0_0_2_41 Rcell_0_2_42 = Rcell_0_0_2_42 Rcell_0_2_43 = Rcell_0_0_2_43 Rcell_0_2_44 = Rcell_0_0_2_44 Rcell_0_2_45 = Rcell_0_0_2_45 Rcell_0_2_46 = Rcell_0_0_2_46 Rcell_0_2_47 = Rcell_0_0_2_47 Rcell_0_2_48 = Rcell_0_0_2_48 Rcell_0_2_49 = Rcell_0_0_2_49 Rcell_0_2_50 = Rcell_0_0_2_50 Rcell_0_2_51 = Rcell_0_0_2_51 Rcell_0_2_52 = Rcell_0_0_2_52 Rcell_0_2_53 = Rcell_0_0_2_53 Rcell_0_2_54 = Rcell_0_0_2_54 Rcell_0_2_55 = Rcell_0_0_2_55 Rcell_0_2_56 = Rcell_0_0_2_56 Rcell_0_2_57 = Rcell_0_0_2_57 Rcell_0_2_58 = Rcell_0_0_2_58 Rcell_0_2_59 = Rcell_0_0_2_59 Rcell_0_2_60 = Rcell_0_0_2_60 Rcell_0_2_61 = Rcell_0_0_2_61 Rcell_0_2_62 = Rcell_0_0_2_62 Rcell_0_2_63 = Rcell_0_0_2_63 Rcell_0_2_64 = Rcell_0_0_2_64 Rcell_0_2_65 = Rcell_0_0_2_65 Rcell_0_2_66 = Rcell_0_0_2_66 Rcell_0_2_67 = Rcell_0_0_2_67 Rcell_0_2_68 = Rcell_0_0_2_68 Rcell_0_2_69 = Rcell_0_0_2_69 Rcell_0_2_70 = Rcell_0_0_2_70 Rcell_0_2_71 = Rcell_0_0_2_71 Rcell_0_2_72 = Rcell_0_0_2_72 Rcell_0_2_73 = Rcell_0_0_2_73 Rcell_0_2_74 = Rcell_0_0_2_74 Rcell_0_2_75 = Rcell_0_0_2_75 Rcell_0_2_76 = Rcell_0_0_2_76 Rcell_0_2_77 = Rcell_0_0_2_77 Rcell_0_2_78 = Rcell_0_0_2_78 Rcell_0_2_79 = Rcell_0_0_2_79 Rcell_0_2_80 = Rcell_0_0_2_80 Rcell_0_2_81 = Rcell_0_0_2_81 Rcell_0_2_82 = Rcell_0_0_2_82 Rcell_0_2_83 = Rcell_0_0_2_83 Rcell_0_2_84 = Rcell_0_0_2_84 Rcell_0_2_85 = Rcell_0_0_2_85 Rcell_0_2_86 = Rcell_0_0_2_86 Rcell_0_2_87 = Rcell_0_0_2_87 Rcell_0_2_88 = Rcell_0_0_2_88 Rcell_0_2_89 = Rcell_0_0_2_89 Rcell_0_2_90 = Rcell_0_0_2_90 Rcell_0_2_91 = Rcell_0_0_2_91 Rcell_0_2_92 = Rcell_0_0_2_92 Rcell_0_2_93 = Rcell_0_0_2_93 Rcell_0_2_94 = Rcell_0_0_2_94 Rcell_0_2_95 = Rcell_0_0_2_95 Rcell_0_2_96 = Rcell_0_0_2_96 Rcell_0_2_97 = Rcell_0_0_2_97 Rcell_0_2_98 = Rcell_0_0_2_98 Rcell_0_2_99 = Rcell_0_0_2_99 Rcell_0_2_100 = Rcell_0_0_2_100 Rcell_0_2_101 = Rcell_0_0_2_101 Rcell_0_2_102 = Rcell_0_0_2_102 Rcell_0_2_103 = Rcell_0_0_2_103 Rcell_0_2_104 = Rcell_0_0_2_104 Rcell_0_2_105 = Rcell_0_0_2_105 Rcell_0_2_106 = Rcell_0_0_2_106 Rcell_0_2_107 = Rcell_0_0_2_107 Rcell_0_2_108 = Rcell_0_0_2_108 Rcell_0_2_109 = Rcell_0_0_2_109 Rcell_0_2_110 = Rcell_0_0_2_110 Rcell_0_2_111 = Rcell_0_0_2_111 Rcell_0_2_112 = Rcell_0_0_2_112 Rcell_0_2_113 = Rcell_0_0_2_113 Rcell_0_2_114 = Rcell_0_0_2_114 Rcell_0_2_115 = Rcell_0_0_2_115 Rcell_0_2_116 = Rcell_0_0_2_116 Rcell_0_2_117 = Rcell_0_0_2_117 Rcell_0_2_118 = Rcell_0_0_2_118 Rcell_0_2_119 = Rcell_0_0_2_119 Rcell_0_2_120 = Rcell_0_0_2_120 Rcell_0_2_121 = Rcell_0_0_2_121 Rcell_0_2_122 = Rcell_0_0_2_122 Rcell_0_2_123 = Rcell_0_0_2_123 Rcell_0_2_124 = Rcell_0_0_2_124 Rcell_0_2_125 = Rcell_0_0_2_125 Rcell_0_2_126 = Rcell_0_0_2_126 Rcell_0_2_127 = Rcell_0_0_2_127 Rcell_0_3_0 = Rcell_0_0_3_0 Rcell_0_3_1 = Rcell_0_0_3_1 Rcell_0_3_2 = Rcell_0_0_3_2 Rcell_0_3_3 = Rcell_0_0_3_3 Rcell_0_3_4 = Rcell_0_0_3_4 Rcell_0_3_5 = Rcell_0_0_3_5 Rcell_0_3_6 = Rcell_0_0_3_6 Rcell_0_3_7 = Rcell_0_0_3_7 Rcell_0_3_8 = Rcell_0_0_3_8 Rcell_0_3_9 = Rcell_0_0_3_9 Rcell_0_3_10 = Rcell_0_0_3_10 Rcell_0_3_11 = Rcell_0_0_3_11 Rcell_0_3_12 = Rcell_0_0_3_12 Rcell_0_3_13 = Rcell_0_0_3_13 Rcell_0_3_14 = Rcell_0_0_3_14 Rcell_0_3_15 = Rcell_0_0_3_15 Rcell_0_3_16 = Rcell_0_0_3_16 Rcell_0_3_17 = Rcell_0_0_3_17 Rcell_0_3_18 = Rcell_0_0_3_18 Rcell_0_3_19 = Rcell_0_0_3_19 Rcell_0_3_20 = Rcell_0_0_3_20 Rcell_0_3_21 = Rcell_0_0_3_21 Rcell_0_3_22 = Rcell_0_0_3_22 Rcell_0_3_23 = Rcell_0_0_3_23 Rcell_0_3_24 = Rcell_0_0_3_24 Rcell_0_3_25 = Rcell_0_0_3_25 Rcell_0_3_26 = Rcell_0_0_3_26 Rcell_0_3_27 = Rcell_0_0_3_27 Rcell_0_3_28 = Rcell_0_0_3_28 Rcell_0_3_29 = Rcell_0_0_3_29 Rcell_0_3_30 = Rcell_0_0_3_30 Rcell_0_3_31 = Rcell_0_0_3_31 Rcell_0_3_32 = Rcell_0_0_3_32 Rcell_0_3_33 = Rcell_0_0_3_33 Rcell_0_3_34 = Rcell_0_0_3_34 Rcell_0_3_35 = Rcell_0_0_3_35 Rcell_0_3_36 = Rcell_0_0_3_36 Rcell_0_3_37 = Rcell_0_0_3_37 Rcell_0_3_38 = Rcell_0_0_3_38 Rcell_0_3_39 = Rcell_0_0_3_39 Rcell_0_3_40 = Rcell_0_0_3_40 Rcell_0_3_41 = Rcell_0_0_3_41 Rcell_0_3_42 = Rcell_0_0_3_42 Rcell_0_3_43 = Rcell_0_0_3_43 Rcell_0_3_44 = Rcell_0_0_3_44 Rcell_0_3_45 = Rcell_0_0_3_45 Rcell_0_3_46 = Rcell_0_0_3_46 Rcell_0_3_47 = Rcell_0_0_3_47 Rcell_0_3_48 = Rcell_0_0_3_48 Rcell_0_3_49 = Rcell_0_0_3_49 Rcell_0_3_50 = Rcell_0_0_3_50 Rcell_0_3_51 = Rcell_0_0_3_51 Rcell_0_3_52 = Rcell_0_0_3_52 Rcell_0_3_53 = Rcell_0_0_3_53 Rcell_0_3_54 = Rcell_0_0_3_54 Rcell_0_3_55 = Rcell_0_0_3_55 Rcell_0_3_56 = Rcell_0_0_3_56 Rcell_0_3_57 = Rcell_0_0_3_57 Rcell_0_3_58 = Rcell_0_0_3_58 Rcell_0_3_59 = Rcell_0_0_3_59 Rcell_0_3_60 = Rcell_0_0_3_60 Rcell_0_3_61 = Rcell_0_0_3_61 Rcell_0_3_62 = Rcell_0_0_3_62 Rcell_0_3_63 = Rcell_0_0_3_63 Rcell_0_3_64 = Rcell_0_0_3_64 Rcell_0_3_65 = Rcell_0_0_3_65 Rcell_0_3_66 = Rcell_0_0_3_66 Rcell_0_3_67 = Rcell_0_0_3_67 Rcell_0_3_68 = Rcell_0_0_3_68 Rcell_0_3_69 = Rcell_0_0_3_69 Rcell_0_3_70 = Rcell_0_0_3_70 Rcell_0_3_71 = Rcell_0_0_3_71 Rcell_0_3_72 = Rcell_0_0_3_72 Rcell_0_3_73 = Rcell_0_0_3_73 Rcell_0_3_74 = Rcell_0_0_3_74 Rcell_0_3_75 = Rcell_0_0_3_75 Rcell_0_3_76 = Rcell_0_0_3_76 Rcell_0_3_77 = Rcell_0_0_3_77 Rcell_0_3_78 = Rcell_0_0_3_78 Rcell_0_3_79 = Rcell_0_0_3_79 Rcell_0_3_80 = Rcell_0_0_3_80 Rcell_0_3_81 = Rcell_0_0_3_81 Rcell_0_3_82 = Rcell_0_0_3_82 Rcell_0_3_83 = Rcell_0_0_3_83 Rcell_0_3_84 = Rcell_0_0_3_84 Rcell_0_3_85 = Rcell_0_0_3_85 Rcell_0_3_86 = Rcell_0_0_3_86 Rcell_0_3_87 = Rcell_0_0_3_87 Rcell_0_3_88 = Rcell_0_0_3_88 Rcell_0_3_89 = Rcell_0_0_3_89 Rcell_0_3_90 = Rcell_0_0_3_90 Rcell_0_3_91 = Rcell_0_0_3_91 Rcell_0_3_92 = Rcell_0_0_3_92 Rcell_0_3_93 = Rcell_0_0_3_93 Rcell_0_3_94 = Rcell_0_0_3_94 Rcell_0_3_95 = Rcell_0_0_3_95 Rcell_0_3_96 = Rcell_0_0_3_96 Rcell_0_3_97 = Rcell_0_0_3_97 Rcell_0_3_98 = Rcell_0_0_3_98 Rcell_0_3_99 = Rcell_0_0_3_99 Rcell_0_3_100 = Rcell_0_0_3_100 Rcell_0_3_101 = Rcell_0_0_3_101 Rcell_0_3_102 = Rcell_0_0_3_102 Rcell_0_3_103 = Rcell_0_0_3_103 Rcell_0_3_104 = Rcell_0_0_3_104 Rcell_0_3_105 = Rcell_0_0_3_105 Rcell_0_3_106 = Rcell_0_0_3_106 Rcell_0_3_107 = Rcell_0_0_3_107 Rcell_0_3_108 = Rcell_0_0_3_108 Rcell_0_3_109 = Rcell_0_0_3_109 Rcell_0_3_110 = Rcell_0_0_3_110 Rcell_0_3_111 = Rcell_0_0_3_111 Rcell_0_3_112 = Rcell_0_0_3_112 Rcell_0_3_113 = Rcell_0_0_3_113 Rcell_0_3_114 = Rcell_0_0_3_114 Rcell_0_3_115 = Rcell_0_0_3_115 Rcell_0_3_116 = Rcell_0_0_3_116 Rcell_0_3_117 = Rcell_0_0_3_117 Rcell_0_3_118 = Rcell_0_0_3_118 Rcell_0_3_119 = Rcell_0_0_3_119 Rcell_0_3_120 = Rcell_0_0_3_120 Rcell_0_3_121 = Rcell_0_0_3_121 Rcell_0_3_122 = Rcell_0_0_3_122 Rcell_0_3_123 = Rcell_0_0_3_123 Rcell_0_3_124 = Rcell_0_0_3_124 Rcell_0_3_125 = Rcell_0_0_3_125 Rcell_0_3_126 = Rcell_0_0_3_126 Rcell_0_3_127 = Rcell_0_0_3_127 Rcell_0_4_0 = Rcell_0_0_4_0 Rcell_0_4_1 = Rcell_0_0_4_1 Rcell_0_4_2 = Rcell_0_0_4_2 Rcell_0_4_3 = Rcell_0_0_4_3 Rcell_0_4_4 = Rcell_0_0_4_4 Rcell_0_4_5 = Rcell_0_0_4_5 Rcell_0_4_6 = Rcell_0_0_4_6 Rcell_0_4_7 = Rcell_0_0_4_7 Rcell_0_4_8 = Rcell_0_0_4_8 Rcell_0_4_9 = Rcell_0_0_4_9 Rcell_0_4_10 = Rcell_0_0_4_10 Rcell_0_4_11 = Rcell_0_0_4_11 Rcell_0_4_12 = Rcell_0_0_4_12 Rcell_0_4_13 = Rcell_0_0_4_13 Rcell_0_4_14 = Rcell_0_0_4_14 Rcell_0_4_15 = Rcell_0_0_4_15 Rcell_0_4_16 = Rcell_0_0_4_16 Rcell_0_4_17 = Rcell_0_0_4_17 Rcell_0_4_18 = Rcell_0_0_4_18 Rcell_0_4_19 = Rcell_0_0_4_19 Rcell_0_4_20 = Rcell_0_0_4_20 Rcell_0_4_21 = Rcell_0_0_4_21 Rcell_0_4_22 = Rcell_0_0_4_22 Rcell_0_4_23 = Rcell_0_0_4_23 Rcell_0_4_24 = Rcell_0_0_4_24 Rcell_0_4_25 = Rcell_0_0_4_25 Rcell_0_4_26 = Rcell_0_0_4_26 Rcell_0_4_27 = Rcell_0_0_4_27 Rcell_0_4_28 = Rcell_0_0_4_28 Rcell_0_4_29 = Rcell_0_0_4_29 Rcell_0_4_30 = Rcell_0_0_4_30 Rcell_0_4_31 = Rcell_0_0_4_31 Rcell_0_4_32 = Rcell_0_0_4_32 Rcell_0_4_33 = Rcell_0_0_4_33 Rcell_0_4_34 = Rcell_0_0_4_34 Rcell_0_4_35 = Rcell_0_0_4_35 Rcell_0_4_36 = Rcell_0_0_4_36 Rcell_0_4_37 = Rcell_0_0_4_37 Rcell_0_4_38 = Rcell_0_0_4_38 Rcell_0_4_39 = Rcell_0_0_4_39 Rcell_0_4_40 = Rcell_0_0_4_40 Rcell_0_4_41 = Rcell_0_0_4_41 Rcell_0_4_42 = Rcell_0_0_4_42 Rcell_0_4_43 = Rcell_0_0_4_43 Rcell_0_4_44 = Rcell_0_0_4_44 Rcell_0_4_45 = Rcell_0_0_4_45 Rcell_0_4_46 = Rcell_0_0_4_46 Rcell_0_4_47 = Rcell_0_0_4_47 Rcell_0_4_48 = Rcell_0_0_4_48 Rcell_0_4_49 = Rcell_0_0_4_49 Rcell_0_4_50 = Rcell_0_0_4_50 Rcell_0_4_51 = Rcell_0_0_4_51 Rcell_0_4_52 = Rcell_0_0_4_52 Rcell_0_4_53 = Rcell_0_0_4_53 Rcell_0_4_54 = Rcell_0_0_4_54 Rcell_0_4_55 = Rcell_0_0_4_55 Rcell_0_4_56 = Rcell_0_0_4_56 Rcell_0_4_57 = Rcell_0_0_4_57 Rcell_0_4_58 = Rcell_0_0_4_58 Rcell_0_4_59 = Rcell_0_0_4_59 Rcell_0_4_60 = Rcell_0_0_4_60 Rcell_0_4_61 = Rcell_0_0_4_61 Rcell_0_4_62 = Rcell_0_0_4_62 Rcell_0_4_63 = Rcell_0_0_4_63 Rcell_0_4_64 = Rcell_0_0_4_64 Rcell_0_4_65 = Rcell_0_0_4_65 Rcell_0_4_66 = Rcell_0_0_4_66 Rcell_0_4_67 = Rcell_0_0_4_67 Rcell_0_4_68 = Rcell_0_0_4_68 Rcell_0_4_69 = Rcell_0_0_4_69 Rcell_0_4_70 = Rcell_0_0_4_70 Rcell_0_4_71 = Rcell_0_0_4_71 Rcell_0_4_72 = Rcell_0_0_4_72 Rcell_0_4_73 = Rcell_0_0_4_73 Rcell_0_4_74 = Rcell_0_0_4_74 Rcell_0_4_75 = Rcell_0_0_4_75 Rcell_0_4_76 = Rcell_0_0_4_76 Rcell_0_4_77 = Rcell_0_0_4_77 Rcell_0_4_78 = Rcell_0_0_4_78 Rcell_0_4_79 = Rcell_0_0_4_79 Rcell_0_4_80 = Rcell_0_0_4_80 Rcell_0_4_81 = Rcell_0_0_4_81 Rcell_0_4_82 = Rcell_0_0_4_82 Rcell_0_4_83 = Rcell_0_0_4_83 Rcell_0_4_84 = Rcell_0_0_4_84 Rcell_0_4_85 = Rcell_0_0_4_85 Rcell_0_4_86 = Rcell_0_0_4_86 Rcell_0_4_87 = Rcell_0_0_4_87 Rcell_0_4_88 = Rcell_0_0_4_88 Rcell_0_4_89 = Rcell_0_0_4_89 Rcell_0_4_90 = Rcell_0_0_4_90 Rcell_0_4_91 = Rcell_0_0_4_91 Rcell_0_4_92 = Rcell_0_0_4_92 Rcell_0_4_93 = Rcell_0_0_4_93 Rcell_0_4_94 = Rcell_0_0_4_94 Rcell_0_4_95 = Rcell_0_0_4_95 Rcell_0_4_96 = Rcell_0_0_4_96 Rcell_0_4_97 = Rcell_0_0_4_97 Rcell_0_4_98 = Rcell_0_0_4_98 Rcell_0_4_99 = Rcell_0_0_4_99 Rcell_0_4_100 = Rcell_0_0_4_100 Rcell_0_4_101 = Rcell_0_0_4_101 Rcell_0_4_102 = Rcell_0_0_4_102 Rcell_0_4_103 = Rcell_0_0_4_103 Rcell_0_4_104 = Rcell_0_0_4_104 Rcell_0_4_105 = Rcell_0_0_4_105 Rcell_0_4_106 = Rcell_0_0_4_106 Rcell_0_4_107 = Rcell_0_0_4_107 Rcell_0_4_108 = Rcell_0_0_4_108 Rcell_0_4_109 = Rcell_0_0_4_109 Rcell_0_4_110 = Rcell_0_0_4_110 Rcell_0_4_111 = Rcell_0_0_4_111 Rcell_0_4_112 = Rcell_0_0_4_112 Rcell_0_4_113 = Rcell_0_0_4_113 Rcell_0_4_114 = Rcell_0_0_4_114 Rcell_0_4_115 = Rcell_0_0_4_115 Rcell_0_4_116 = Rcell_0_0_4_116 Rcell_0_4_117 = Rcell_0_0_4_117 Rcell_0_4_118 = Rcell_0_0_4_118 Rcell_0_4_119 = Rcell_0_0_4_119 Rcell_0_4_120 = Rcell_0_0_4_120 Rcell_0_4_121 = Rcell_0_0_4_121 Rcell_0_4_122 = Rcell_0_0_4_122 Rcell_0_4_123 = Rcell_0_0_4_123 Rcell_0_4_124 = Rcell_0_0_4_124 Rcell_0_4_125 = Rcell_0_0_4_125 Rcell_0_4_126 = Rcell_0_0_4_126 Rcell_0_4_127 = Rcell_0_0_4_127 Rcell_0_5_0 = Rcell_0_0_5_0 Rcell_0_5_1 = Rcell_0_0_5_1 Rcell_0_5_2 = Rcell_0_0_5_2 Rcell_0_5_3 = Rcell_0_0_5_3 Rcell_0_5_4 = Rcell_0_0_5_4 Rcell_0_5_5 = Rcell_0_0_5_5 Rcell_0_5_6 = Rcell_0_0_5_6 Rcell_0_5_7 = Rcell_0_0_5_7 Rcell_0_5_8 = Rcell_0_0_5_8 Rcell_0_5_9 = Rcell_0_0_5_9 Rcell_0_5_10 = Rcell_0_0_5_10 Rcell_0_5_11 = Rcell_0_0_5_11 Rcell_0_5_12 = Rcell_0_0_5_12 Rcell_0_5_13 = Rcell_0_0_5_13 Rcell_0_5_14 = Rcell_0_0_5_14 Rcell_0_5_15 = Rcell_0_0_5_15 Rcell_0_5_16 = Rcell_0_0_5_16 Rcell_0_5_17 = Rcell_0_0_5_17 Rcell_0_5_18 = Rcell_0_0_5_18 Rcell_0_5_19 = Rcell_0_0_5_19 Rcell_0_5_20 = Rcell_0_0_5_20 Rcell_0_5_21 = Rcell_0_0_5_21 Rcell_0_5_22 = Rcell_0_0_5_22 Rcell_0_5_23 = Rcell_0_0_5_23 Rcell_0_5_24 = Rcell_0_0_5_24 Rcell_0_5_25 = Rcell_0_0_5_25 Rcell_0_5_26 = Rcell_0_0_5_26 Rcell_0_5_27 = Rcell_0_0_5_27 Rcell_0_5_28 = Rcell_0_0_5_28 Rcell_0_5_29 = Rcell_0_0_5_29 Rcell_0_5_30 = Rcell_0_0_5_30 Rcell_0_5_31 = Rcell_0_0_5_31 Rcell_0_5_32 = Rcell_0_0_5_32 Rcell_0_5_33 = Rcell_0_0_5_33 Rcell_0_5_34 = Rcell_0_0_5_34 Rcell_0_5_35 = Rcell_0_0_5_35 Rcell_0_5_36 = Rcell_0_0_5_36 Rcell_0_5_37 = Rcell_0_0_5_37 Rcell_0_5_38 = Rcell_0_0_5_38 Rcell_0_5_39 = Rcell_0_0_5_39 Rcell_0_5_40 = Rcell_0_0_5_40 Rcell_0_5_41 = Rcell_0_0_5_41 Rcell_0_5_42 = Rcell_0_0_5_42 Rcell_0_5_43 = Rcell_0_0_5_43 Rcell_0_5_44 = Rcell_0_0_5_44 Rcell_0_5_45 = Rcell_0_0_5_45 Rcell_0_5_46 = Rcell_0_0_5_46 Rcell_0_5_47 = Rcell_0_0_5_47 Rcell_0_5_48 = Rcell_0_0_5_48 Rcell_0_5_49 = Rcell_0_0_5_49 Rcell_0_5_50 = Rcell_0_0_5_50 Rcell_0_5_51 = Rcell_0_0_5_51 Rcell_0_5_52 = Rcell_0_0_5_52 Rcell_0_5_53 = Rcell_0_0_5_53 Rcell_0_5_54 = Rcell_0_0_5_54 Rcell_0_5_55 = Rcell_0_0_5_55 Rcell_0_5_56 = Rcell_0_0_5_56 Rcell_0_5_57 = Rcell_0_0_5_57 Rcell_0_5_58 = Rcell_0_0_5_58 Rcell_0_5_59 = Rcell_0_0_5_59 Rcell_0_5_60 = Rcell_0_0_5_60 Rcell_0_5_61 = Rcell_0_0_5_61 Rcell_0_5_62 = Rcell_0_0_5_62 Rcell_0_5_63 = Rcell_0_0_5_63 Rcell_0_5_64 = Rcell_0_0_5_64 Rcell_0_5_65 = Rcell_0_0_5_65 Rcell_0_5_66 = Rcell_0_0_5_66 Rcell_0_5_67 = Rcell_0_0_5_67 Rcell_0_5_68 = Rcell_0_0_5_68 Rcell_0_5_69 = Rcell_0_0_5_69 Rcell_0_5_70 = Rcell_0_0_5_70 Rcell_0_5_71 = Rcell_0_0_5_71 Rcell_0_5_72 = Rcell_0_0_5_72 Rcell_0_5_73 = Rcell_0_0_5_73 Rcell_0_5_74 = Rcell_0_0_5_74 Rcell_0_5_75 = Rcell_0_0_5_75 Rcell_0_5_76 = Rcell_0_0_5_76 Rcell_0_5_77 = Rcell_0_0_5_77 Rcell_0_5_78 = Rcell_0_0_5_78 Rcell_0_5_79 = Rcell_0_0_5_79 Rcell_0_5_80 = Rcell_0_0_5_80 Rcell_0_5_81 = Rcell_0_0_5_81 Rcell_0_5_82 = Rcell_0_0_5_82 Rcell_0_5_83 = Rcell_0_0_5_83 Rcell_0_5_84 = Rcell_0_0_5_84 Rcell_0_5_85 = Rcell_0_0_5_85 Rcell_0_5_86 = Rcell_0_0_5_86 Rcell_0_5_87 = Rcell_0_0_5_87 Rcell_0_5_88 = Rcell_0_0_5_88 Rcell_0_5_89 = Rcell_0_0_5_89 Rcell_0_5_90 = Rcell_0_0_5_90 Rcell_0_5_91 = Rcell_0_0_5_91 Rcell_0_5_92 = Rcell_0_0_5_92 Rcell_0_5_93 = Rcell_0_0_5_93 Rcell_0_5_94 = Rcell_0_0_5_94 Rcell_0_5_95 = Rcell_0_0_5_95 Rcell_0_5_96 = Rcell_0_0_5_96 Rcell_0_5_97 = Rcell_0_0_5_97 Rcell_0_5_98 = Rcell_0_0_5_98 Rcell_0_5_99 = Rcell_0_0_5_99 Rcell_0_5_100 = Rcell_0_0_5_100 Rcell_0_5_101 = Rcell_0_0_5_101 Rcell_0_5_102 = Rcell_0_0_5_102 Rcell_0_5_103 = Rcell_0_0_5_103 Rcell_0_5_104 = Rcell_0_0_5_104 Rcell_0_5_105 = Rcell_0_0_5_105 Rcell_0_5_106 = Rcell_0_0_5_106 Rcell_0_5_107 = Rcell_0_0_5_107 Rcell_0_5_108 = Rcell_0_0_5_108 Rcell_0_5_109 = Rcell_0_0_5_109 Rcell_0_5_110 = Rcell_0_0_5_110 Rcell_0_5_111 = Rcell_0_0_5_111 Rcell_0_5_112 = Rcell_0_0_5_112 Rcell_0_5_113 = Rcell_0_0_5_113 Rcell_0_5_114 = Rcell_0_0_5_114 Rcell_0_5_115 = Rcell_0_0_5_115 Rcell_0_5_116 = Rcell_0_0_5_116 Rcell_0_5_117 = Rcell_0_0_5_117 Rcell_0_5_118 = Rcell_0_0_5_118 Rcell_0_5_119 = Rcell_0_0_5_119 Rcell_0_5_120 = Rcell_0_0_5_120 Rcell_0_5_121 = Rcell_0_0_5_121 Rcell_0_5_122 = Rcell_0_0_5_122 Rcell_0_5_123 = Rcell_0_0_5_123 Rcell_0_5_124 = Rcell_0_0_5_124 Rcell_0_5_125 = Rcell_0_0_5_125 Rcell_0_5_126 = Rcell_0_0_5_126 Rcell_0_5_127 = Rcell_0_0_5_127 Rcell_0_6_0 = Rcell_0_0_6_0 Rcell_0_6_1 = Rcell_0_0_6_1 Rcell_0_6_2 = Rcell_0_0_6_2 Rcell_0_6_3 = Rcell_0_0_6_3 Rcell_0_6_4 = Rcell_0_0_6_4 Rcell_0_6_5 = Rcell_0_0_6_5 Rcell_0_6_6 = Rcell_0_0_6_6 Rcell_0_6_7 = Rcell_0_0_6_7 Rcell_0_6_8 = Rcell_0_0_6_8 Rcell_0_6_9 = Rcell_0_0_6_9 Rcell_0_6_10 = Rcell_0_0_6_10 Rcell_0_6_11 = Rcell_0_0_6_11 Rcell_0_6_12 = Rcell_0_0_6_12 Rcell_0_6_13 = Rcell_0_0_6_13 Rcell_0_6_14 = Rcell_0_0_6_14 Rcell_0_6_15 = Rcell_0_0_6_15 Rcell_0_6_16 = Rcell_0_0_6_16 Rcell_0_6_17 = Rcell_0_0_6_17 Rcell_0_6_18 = Rcell_0_0_6_18 Rcell_0_6_19 = Rcell_0_0_6_19 Rcell_0_6_20 = Rcell_0_0_6_20 Rcell_0_6_21 = Rcell_0_0_6_21 Rcell_0_6_22 = Rcell_0_0_6_22 Rcell_0_6_23 = Rcell_0_0_6_23 Rcell_0_6_24 = Rcell_0_0_6_24 Rcell_0_6_25 = Rcell_0_0_6_25 Rcell_0_6_26 = Rcell_0_0_6_26 Rcell_0_6_27 = Rcell_0_0_6_27 Rcell_0_6_28 = Rcell_0_0_6_28 Rcell_0_6_29 = Rcell_0_0_6_29 Rcell_0_6_30 = Rcell_0_0_6_30 Rcell_0_6_31 = Rcell_0_0_6_31 Rcell_0_6_32 = Rcell_0_0_6_32 Rcell_0_6_33 = Rcell_0_0_6_33 Rcell_0_6_34 = Rcell_0_0_6_34 Rcell_0_6_35 = Rcell_0_0_6_35 Rcell_0_6_36 = Rcell_0_0_6_36 Rcell_0_6_37 = Rcell_0_0_6_37 Rcell_0_6_38 = Rcell_0_0_6_38 Rcell_0_6_39 = Rcell_0_0_6_39 Rcell_0_6_40 = Rcell_0_0_6_40 Rcell_0_6_41 = Rcell_0_0_6_41 Rcell_0_6_42 = Rcell_0_0_6_42 Rcell_0_6_43 = Rcell_0_0_6_43 Rcell_0_6_44 = Rcell_0_0_6_44 Rcell_0_6_45 = Rcell_0_0_6_45 Rcell_0_6_46 = Rcell_0_0_6_46 Rcell_0_6_47 = Rcell_0_0_6_47 Rcell_0_6_48 = Rcell_0_0_6_48 Rcell_0_6_49 = Rcell_0_0_6_49 Rcell_0_6_50 = Rcell_0_0_6_50 Rcell_0_6_51 = Rcell_0_0_6_51 Rcell_0_6_52 = Rcell_0_0_6_52 Rcell_0_6_53 = Rcell_0_0_6_53 Rcell_0_6_54 = Rcell_0_0_6_54 Rcell_0_6_55 = Rcell_0_0_6_55 Rcell_0_6_56 = Rcell_0_0_6_56 Rcell_0_6_57 = Rcell_0_0_6_57 Rcell_0_6_58 = Rcell_0_0_6_58 Rcell_0_6_59 = Rcell_0_0_6_59 Rcell_0_6_60 = Rcell_0_0_6_60 Rcell_0_6_61 = Rcell_0_0_6_61 Rcell_0_6_62 = Rcell_0_0_6_62 Rcell_0_6_63 = Rcell_0_0_6_63 Rcell_0_6_64 = Rcell_0_0_6_64 Rcell_0_6_65 = Rcell_0_0_6_65 Rcell_0_6_66 = Rcell_0_0_6_66 Rcell_0_6_67 = Rcell_0_0_6_67 Rcell_0_6_68 = Rcell_0_0_6_68 Rcell_0_6_69 = Rcell_0_0_6_69 Rcell_0_6_70 = Rcell_0_0_6_70 Rcell_0_6_71 = Rcell_0_0_6_71 Rcell_0_6_72 = Rcell_0_0_6_72 Rcell_0_6_73 = Rcell_0_0_6_73 Rcell_0_6_74 = Rcell_0_0_6_74 Rcell_0_6_75 = Rcell_0_0_6_75 Rcell_0_6_76 = Rcell_0_0_6_76 Rcell_0_6_77 = Rcell_0_0_6_77 Rcell_0_6_78 = Rcell_0_0_6_78 Rcell_0_6_79 = Rcell_0_0_6_79 Rcell_0_6_80 = Rcell_0_0_6_80 Rcell_0_6_81 = Rcell_0_0_6_81 Rcell_0_6_82 = Rcell_0_0_6_82 Rcell_0_6_83 = Rcell_0_0_6_83 Rcell_0_6_84 = Rcell_0_0_6_84 Rcell_0_6_85 = Rcell_0_0_6_85 Rcell_0_6_86 = Rcell_0_0_6_86 Rcell_0_6_87 = Rcell_0_0_6_87 Rcell_0_6_88 = Rcell_0_0_6_88 Rcell_0_6_89 = Rcell_0_0_6_89 Rcell_0_6_90 = Rcell_0_0_6_90 Rcell_0_6_91 = Rcell_0_0_6_91 Rcell_0_6_92 = Rcell_0_0_6_92 Rcell_0_6_93 = Rcell_0_0_6_93 Rcell_0_6_94 = Rcell_0_0_6_94 Rcell_0_6_95 = Rcell_0_0_6_95 Rcell_0_6_96 = Rcell_0_0_6_96 Rcell_0_6_97 = Rcell_0_0_6_97 Rcell_0_6_98 = Rcell_0_0_6_98 Rcell_0_6_99 = Rcell_0_0_6_99 Rcell_0_6_100 = Rcell_0_0_6_100 Rcell_0_6_101 = Rcell_0_0_6_101 Rcell_0_6_102 = Rcell_0_0_6_102 Rcell_0_6_103 = Rcell_0_0_6_103 Rcell_0_6_104 = Rcell_0_0_6_104 Rcell_0_6_105 = Rcell_0_0_6_105 Rcell_0_6_106 = Rcell_0_0_6_106 Rcell_0_6_107 = Rcell_0_0_6_107 Rcell_0_6_108 = Rcell_0_0_6_108 Rcell_0_6_109 = Rcell_0_0_6_109 Rcell_0_6_110 = Rcell_0_0_6_110 Rcell_0_6_111 = Rcell_0_0_6_111 Rcell_0_6_112 = Rcell_0_0_6_112 Rcell_0_6_113 = Rcell_0_0_6_113 Rcell_0_6_114 = Rcell_0_0_6_114 Rcell_0_6_115 = Rcell_0_0_6_115 Rcell_0_6_116 = Rcell_0_0_6_116 Rcell_0_6_117 = Rcell_0_0_6_117 Rcell_0_6_118 = Rcell_0_0_6_118 Rcell_0_6_119 = Rcell_0_0_6_119 Rcell_0_6_120 = Rcell_0_0_6_120 Rcell_0_6_121 = Rcell_0_0_6_121 Rcell_0_6_122 = Rcell_0_0_6_122 Rcell_0_6_123 = Rcell_0_0_6_123 Rcell_0_6_124 = Rcell_0_0_6_124 Rcell_0_6_125 = Rcell_0_0_6_125 Rcell_0_6_126 = Rcell_0_0_6_126 Rcell_0_6_127 = Rcell_0_0_6_127 Rcell_0_7_0 = Rcell_0_0_7_0 Rcell_0_7_1 = Rcell_0_0_7_1 Rcell_0_7_2 = Rcell_0_0_7_2 Rcell_0_7_3 = Rcell_0_0_7_3 Rcell_0_7_4 = Rcell_0_0_7_4 Rcell_0_7_5 = Rcell_0_0_7_5 Rcell_0_7_6 = Rcell_0_0_7_6 Rcell_0_7_7 = Rcell_0_0_7_7 Rcell_0_7_8 = Rcell_0_0_7_8 Rcell_0_7_9 = Rcell_0_0_7_9 Rcell_0_7_10 = Rcell_0_0_7_10 Rcell_0_7_11 = Rcell_0_0_7_11 Rcell_0_7_12 = Rcell_0_0_7_12 Rcell_0_7_13 = Rcell_0_0_7_13 Rcell_0_7_14 = Rcell_0_0_7_14 Rcell_0_7_15 = Rcell_0_0_7_15 Rcell_0_7_16 = Rcell_0_0_7_16 Rcell_0_7_17 = Rcell_0_0_7_17 Rcell_0_7_18 = Rcell_0_0_7_18 Rcell_0_7_19 = Rcell_0_0_7_19 Rcell_0_7_20 = Rcell_0_0_7_20 Rcell_0_7_21 = Rcell_0_0_7_21 Rcell_0_7_22 = Rcell_0_0_7_22 Rcell_0_7_23 = Rcell_0_0_7_23 Rcell_0_7_24 = Rcell_0_0_7_24 Rc