
simulator lang=spectre

parameters PWmin = 100n                         //MinimalTransistorWidth
parameters PLmin = 45n                          //MinimalTransistorLenght
        
parameters numberofruns = $<sp.numruns>$
parameters enableMismatch = $<sp.MismatchOn>$  
parameters simlength = $<sp.simlength>$

$for i=0:sp.NoI-1
parameters wavein$<strcat('_',int2str(i))>$=$<sp.wavesin{i+1}>$
$end
parameters waveen = $<sp.enablewave>$