simulator lang=spectre

parameters PWp = $<sp.Pmult>$*100n
parameters PWn = $<sp.Nmult>$*100n
parameters PWpenable = $<sp.Pmultenable>$*100n
parameters PWnenable = $<sp.Nmultenable>$*100n

parameters lepwave=$<sp.lep>$
parameters lenwave=$<sp.len>$

parameters initialout=$<sp.inout>$
parameters initialoutbar=$<sp.inoutbar>$

parameters numberofruns = $<sp.numruns>$