simulator lang=spectre

include "transistorsPTM.scs"
include "parameters.sp"
include "architecture.scs"