simulator lang=spectre

subckt latch (in inbar out outbar vdd vss bp bn LE1 LE2 sel1 sel2)

M1 in sel1 out bn mosn
M2 inbar sel2 outbar bn mosn

M3 out outbar n1 bp mosp w=$<pmult>$
M4 outbar out n1 bp mosp w=$<pmult>$
M5 out outbar n2 bn mosn w=$<nmult>$
M6 outbar out n2 bn mosn w=$<nmult>$

M7 n1 LE1 vdd bp mosp
M8 n2 LE2 vss bn mosn

ends latch
