simulator lang=spice
.lib '../../technology_models/tech_wrapper.lib' tt
.OPTIONS METHOD=trap
.TEMP 30

simulator lang=spectre
include "../../technology_models/monte_carlo_models.scs"
include "../../ArchitectureDesign/SPICE/CMOSlogic.scs"
parameters enableMismatch=0
ana tran step=1e-12 stop=2e-08
option1 options rawfmt = psfascii
option2 options dc_pivot_check = yes

cap info what=captab where=file file="%LEDcap"

vin in vss vsource type=pwl wave=[0 1 1e-09 1 1.001e-09 0]
vgnd vss 0 vsource type=dc dc=0
vvdd vdd 0 vsource type=dc dc=1
parameters PWmin = 100n                         //MinimalTransistorWidth
parameters PLmin = 45n                          //MinimalTransistorLenght

subckt buffer_INVNOR_eight (vdd vss NBulkLine PBulkLine node_0 node_2)
xNot_8_1 (node_0 node_1 vdd vss PBulkLine NBulkLine) inverter mult=1
xNot_8_2 (node_1 node_2 vdd vss PBulkLine NBulkLine) inverter mult=4
ends buffer_INVNOR_eight 


subckt buffer_INVNOR_sixteen (vdd vss NBulkLine PBulkLine node_0 node_2)
xNot_16_2 (node_0 node_1 vdd vss PBulkLine NBulkLine) inverter mult=4
xNot_16_3 (node_1 node_2 vdd vss PBulkLine NBulkLine) inverter mult=16
ends buffer_INVNOR_sixteen 


subckt buffer_INVNOR_thirtytwo (vdd vss NBulkLine PBulkLine node_0 node_2)
xNot_32_2 (node_0 node_1 vdd vss PBulkLine NBulkLine) inverter mult=4
xNot_32_3 (node_1 node_2 vdd vss PBulkLine NBulkLine) inverter mult=16
ends buffer_INVNOR_thirtytwo 


subckt buffer_INVNOR_sixtyfour (vdd vss NBulkLine PBulkLine node_0 node_4)
xNot_64_1 (node_0 node_1 vdd vss PBulkLine NBulkLine) inverter mult=1
xNot_64_2 (node_1 node_2 vdd vss PBulkLine NBulkLine) inverter mult=4
xNot_64_3 (node_2 node_3 vdd vss PBulkLine NBulkLine) inverter mult=16
xNot_64_4 (node_3 node_4 vdd vss PBulkLine NBulkLine) inverter mult=64
ends buffer_INVNOR_sixtyfour 


subckt buffer_INVNOR_onehundredtwentyeight (vdd vss NBulkLine PBulkLine node_0 node_4)
xNot_128_1 (node_0 node_1 vdd vss PBulkLine NBulkLine) inverter mult=1
xNot_128_2 (node_1 node_2 vdd vss PBulkLine NBulkLine) inverter mult=4
xNot_128_3 (node_2 node_3 vdd vss PBulkLine NBulkLine) inverter mult=16
xNot_128_4 (node_3 node_4 vdd vss PBulkLine NBulkLine) inverter mult=64
ends buffer_INVNOR_onehundredtwentyeight 


subckt buffer_INVNOR_twohundredfiftysix (vdd vss NBulkLine PBulkLine node_0 node_4)
xNot_256_2 (node_0 node_1 vdd vss PBulkLine NBulkLine) inverter mult=4
xNot_256_3 (node_1 node_2 vdd vss PBulkLine NBulkLine) inverter mult=16
xNot_256_4 (node_2 node_3 vdd vss PBulkLine NBulkLine) inverter mult=64
xNot_256_5 (node_3 node_4 vdd vss PBulkLine NBulkLine) inverter mult=256
ends buffer_INVNOR_twohundredfiftysix 


subckt buffer_INVNOR_fivehundredandtwelve (vdd vss NBulkLine PBulkLine node_0 node_4)
xNot_512_2 (node_0 node_1 vdd vss PBulkLine NBulkLine) inverter mult=4
xNot_512_3 (node_1 node_2 vdd vss PBulkLine NBulkLine) inverter mult=16
xNot_512_4 (node_2 node_3 vdd vss PBulkLine NBulkLine) inverter mult=64
xNot_512_5 (node_3 node_4 vdd vss PBulkLine NBulkLine) inverter mult=256
ends buffer_INVNOR_fivehundredandtwelve 


subckt buffer_INVNOR_onethousandtwentyfour (vdd vss NBulkLine PBulkLine node_0 node_6)
xNot_1024_1 (node_0 node_1 vdd vss PBulkLine NBulkLine) inverter mult=1
xNot_1024_2 (node_1 node_2 vdd vss PBulkLine NBulkLine) inverter mult=4
xNot_1024_3 (node_2 node_3 vdd vss PBulkLine NBulkLine) inverter mult=16
xNot_1024_4 (node_3 node_4 vdd vss PBulkLine NBulkLine) inverter mult=64
xNot_1024_5 (node_4 node_5 vdd vss PBulkLine NBulkLine) inverter mult=256
xNot_1024_6 (node_5 node_6 vdd vss PBulkLine NBulkLine) inverter mult=1024
ends buffer_INVNOR_onethousandtwentyfour 



subckt buffer_sized (vdd vss NBulkLine PBulkLine in out_8 out_16 out_32 out_64 out_128 out_256 out_512 out_1024)

xbuffer_8 (vdd vss vss vdd in out_8) buffer_INVNOR_eight
//nor_8_1 (out_8 vdd norout8_1 vdd vss PBulkLine NBulkLine) twonor
//nor_8_2 (out_8 vdd norout8_2 vdd vss PBulkLine NBulkLine) twonor
//nor_8_3 (out_8 vdd norout8_3 vdd vss PBulkLine NBulkLine) twonor
//nor_8_4 (out_8 vdd norout8_4 vdd vss PBulkLine NBulkLine) twonor
//nor_8_5 (out_8 vdd norout8_5 vdd vss PBulkLine NBulkLine) twonor
//nor_8_6 (out_8 vdd norout8_6 vdd vss PBulkLine NBulkLine) twonor
//nor_8_7 (out_8 vdd norout8_7 vdd vss PBulkLine NBulkLine) twonor
//nor_8_8 (out_8 vdd norout8_8 vdd vss PBulkLine NBulkLine) twonor
cPar_8 out_8 vss capacitor c=1.44e-15
xbuffer_16 (vdd vss vss vdd in out_16) buffer_INVNOR_sixteen
//nor_16_1 (out_16 vdd norout16_1 vdd vss PBulkLine NBulkLine) twonor
//nor_16_2 (out_16 vdd norout16_2 vdd vss PBulkLine NBulkLine) twonor
//nor_16_3 (out_16 vdd norout16_3 vdd vss PBulkLine NBulkLine) twonor
//nor_16_4 (out_16 vdd norout16_4 vdd vss PBulkLine NBulkLine) twonor
//nor_16_5 (out_16 vdd norout16_5 vdd vss PBulkLine NBulkLine) twonor
//nor_16_6 (out_16 vdd norout16_6 vdd vss PBulkLine NBulkLine) twonor
//nor_16_7 (out_16 vdd norout16_7 vdd vss PBulkLine NBulkLine) twonor
//nor_16_8 (out_16 vdd norout16_8 vdd vss PBulkLine NBulkLine) twonor
//nor_16_9 (out_16 vdd norout16_9 vdd vss PBulkLine NBulkLine) twonor
//nor_16_10 (out_16 vdd norout16_10 vdd vss PBulkLine NBulkLine) twonor
//nor_16_11 (out_16 vdd norout16_11 vdd vss PBulkLine NBulkLine) twonor
//nor_16_12 (out_16 vdd norout16_12 vdd vss PBulkLine NBulkLine) twonor
//nor_16_13 (out_16 vdd norout16_13 vdd vss PBulkLine NBulkLine) twonor
//nor_16_14 (out_16 vdd norout16_14 vdd vss PBulkLine NBulkLine) twonor
//nor_16_15 (out_16 vdd norout16_15 vdd vss PBulkLine NBulkLine) twonor
//nor_16_16 (out_16 vdd norout16_16 vdd vss PBulkLine NBulkLine) twonor
cPar_16 out_16 vss capacitor c=2.88e-15
xbuffer_32 (vdd vss vss vdd in out_32) buffer_INVNOR_thirtytwo
//nor_32_1 (out_32 vdd norout32_1 vdd vss PBulkLine NBulkLine) twonor
//nor_32_2 (out_32 vdd norout32_2 vdd vss PBulkLine NBulkLine) twonor
//nor_32_3 (out_32 vdd norout32_3 vdd vss PBulkLine NBulkLine) twonor
//nor_32_4 (out_32 vdd norout32_4 vdd vss PBulkLine NBulkLine) twonor
//nor_32_5 (out_32 vdd norout32_5 vdd vss PBulkLine NBulkLine) twonor
//nor_32_6 (out_32 vdd norout32_6 vdd vss PBulkLine NBulkLine) twonor
//nor_32_7 (out_32 vdd norout32_7 vdd vss PBulkLine NBulkLine) twonor
//nor_32_8 (out_32 vdd norout32_8 vdd vss PBulkLine NBulkLine) twonor
//nor_32_9 (out_32 vdd norout32_9 vdd vss PBulkLine NBulkLine) twonor
//nor_32_10 (out_32 vdd norout32_10 vdd vss PBulkLine NBulkLine) twonor
//nor_32_11 (out_32 vdd norout32_11 vdd vss PBulkLine NBulkLine) twonor
//nor_32_12 (out_32 vdd norout32_12 vdd vss PBulkLine NBulkLine) twonor
//nor_32_13 (out_32 vdd norout32_13 vdd vss PBulkLine NBulkLine) twonor
//nor_32_14 (out_32 vdd norout32_14 vdd vss PBulkLine NBulkLine) twonor
//nor_32_15 (out_32 vdd norout32_15 vdd vss PBulkLine NBulkLine) twonor
//nor_32_16 (out_32 vdd norout32_16 vdd vss PBulkLine NBulkLine) twonor
//nor_32_17 (out_32 vdd norout32_17 vdd vss PBulkLine NBulkLine) twonor
//nor_32_18 (out_32 vdd norout32_18 vdd vss PBulkLine NBulkLine) twonor
//nor_32_19 (out_32 vdd norout32_19 vdd vss PBulkLine NBulkLine) twonor
//nor_32_20 (out_32 vdd norout32_20 vdd vss PBulkLine NBulkLine) twonor
//nor_32_21 (out_32 vdd norout32_21 vdd vss PBulkLine NBulkLine) twonor
//nor_32_22 (out_32 vdd norout32_22 vdd vss PBulkLine NBulkLine) twonor
//nor_32_23 (out_32 vdd norout32_23 vdd vss PBulkLine NBulkLine) twonor
//nor_32_24 (out_32 vdd norout32_24 vdd vss PBulkLine NBulkLine) twonor
//nor_32_25 (out_32 vdd norout32_25 vdd vss PBulkLine NBulkLine) twonor
//nor_32_26 (out_32 vdd norout32_26 vdd vss PBulkLine NBulkLine) twonor
//nor_32_27 (out_32 vdd norout32_27 vdd vss PBulkLine NBulkLine) twonor
//nor_32_28 (out_32 vdd norout32_28 vdd vss PBulkLine NBulkLine) twonor
//nor_32_29 (out_32 vdd norout32_29 vdd vss PBulkLine NBulkLine) twonor
//nor_32_30 (out_32 vdd norout32_30 vdd vss PBulkLine NBulkLine) twonor
//nor_32_31 (out_32 vdd norout32_31 vdd vss PBulkLine NBulkLine) twonor
//nor_32_32 (out_32 vdd norout32_32 vdd vss PBulkLine NBulkLine) twonor
cPar_32 out_32 vss capacitor c=5.76e-15
xbuffer_64 (vdd vss vss vdd in out_64) buffer_INVNOR_sixtyfour
//nor_64_1 (out_64 vdd norout64_1 vdd vss PBulkLine NBulkLine) twonor
//nor_64_2 (out_64 vdd norout64_2 vdd vss PBulkLine NBulkLine) twonor
//nor_64_3 (out_64 vdd norout64_3 vdd vss PBulkLine NBulkLine) twonor
//nor_64_4 (out_64 vdd norout64_4 vdd vss PBulkLine NBulkLine) twonor
//nor_64_5 (out_64 vdd norout64_5 vdd vss PBulkLine NBulkLine) twonor
//nor_64_6 (out_64 vdd norout64_6 vdd vss PBulkLine NBulkLine) twonor
//nor_64_7 (out_64 vdd norout64_7 vdd vss PBulkLine NBulkLine) twonor
//nor_64_8 (out_64 vdd norout64_8 vdd vss PBulkLine NBulkLine) twonor
//nor_64_9 (out_64 vdd norout64_9 vdd vss PBulkLine NBulkLine) twonor
//nor_64_10 (out_64 vdd norout64_10 vdd vss PBulkLine NBulkLine) twonor
//nor_64_11 (out_64 vdd norout64_11 vdd vss PBulkLine NBulkLine) twonor
//nor_64_12 (out_64 vdd norout64_12 vdd vss PBulkLine NBulkLine) twonor
//nor_64_13 (out_64 vdd norout64_13 vdd vss PBulkLine NBulkLine) twonor
//nor_64_14 (out_64 vdd norout64_14 vdd vss PBulkLine NBulkLine) twonor
//nor_64_15 (out_64 vdd norout64_15 vdd vss PBulkLine NBulkLine) twonor
//nor_64_16 (out_64 vdd norout64_16 vdd vss PBulkLine NBulkLine) twonor
//nor_64_17 (out_64 vdd norout64_17 vdd vss PBulkLine NBulkLine) twonor
//nor_64_18 (out_64 vdd norout64_18 vdd vss PBulkLine NBulkLine) twonor
//nor_64_19 (out_64 vdd norout64_19 vdd vss PBulkLine NBulkLine) twonor
//nor_64_20 (out_64 vdd norout64_20 vdd vss PBulkLine NBulkLine) twonor
//nor_64_21 (out_64 vdd norout64_21 vdd vss PBulkLine NBulkLine) twonor
//nor_64_22 (out_64 vdd norout64_22 vdd vss PBulkLine NBulkLine) twonor
//nor_64_23 (out_64 vdd norout64_23 vdd vss PBulkLine NBulkLine) twonor
//nor_64_24 (out_64 vdd norout64_24 vdd vss PBulkLine NBulkLine) twonor
//nor_64_25 (out_64 vdd norout64_25 vdd vss PBulkLine NBulkLine) twonor
//nor_64_26 (out_64 vdd norout64_26 vdd vss PBulkLine NBulkLine) twonor
//nor_64_27 (out_64 vdd norout64_27 vdd vss PBulkLine NBulkLine) twonor
//nor_64_28 (out_64 vdd norout64_28 vdd vss PBulkLine NBulkLine) twonor
//nor_64_29 (out_64 vdd norout64_29 vdd vss PBulkLine NBulkLine) twonor
//nor_64_30 (out_64 vdd norout64_30 vdd vss PBulkLine NBulkLine) twonor
//nor_64_31 (out_64 vdd norout64_31 vdd vss PBulkLine NBulkLine) twonor
//nor_64_32 (out_64 vdd norout64_32 vdd vss PBulkLine NBulkLine) twonor
//nor_64_33 (out_64 vdd norout64_33 vdd vss PBulkLine NBulkLine) twonor
//nor_64_34 (out_64 vdd norout64_34 vdd vss PBulkLine NBulkLine) twonor
//nor_64_35 (out_64 vdd norout64_35 vdd vss PBulkLine NBulkLine) twonor
//nor_64_36 (out_64 vdd norout64_36 vdd vss PBulkLine NBulkLine) twonor
//nor_64_37 (out_64 vdd norout64_37 vdd vss PBulkLine NBulkLine) twonor
//nor_64_38 (out_64 vdd norout64_38 vdd vss PBulkLine NBulkLine) twonor
//nor_64_39 (out_64 vdd norout64_39 vdd vss PBulkLine NBulkLine) twonor
//nor_64_40 (out_64 vdd norout64_40 vdd vss PBulkLine NBulkLine) twonor
//nor_64_41 (out_64 vdd norout64_41 vdd vss PBulkLine NBulkLine) twonor
//nor_64_42 (out_64 vdd norout64_42 vdd vss PBulkLine NBulkLine) twonor
//nor_64_43 (out_64 vdd norout64_43 vdd vss PBulkLine NBulkLine) twonor
//nor_64_44 (out_64 vdd norout64_44 vdd vss PBulkLine NBulkLine) twonor
//nor_64_45 (out_64 vdd norout64_45 vdd vss PBulkLine NBulkLine) twonor
//nor_64_46 (out_64 vdd norout64_46 vdd vss PBulkLine NBulkLine) twonor
//nor_64_47 (out_64 vdd norout64_47 vdd vss PBulkLine NBulkLine) twonor
//nor_64_48 (out_64 vdd norout64_48 vdd vss PBulkLine NBulkLine) twonor
//nor_64_49 (out_64 vdd norout64_49 vdd vss PBulkLine NBulkLine) twonor
//nor_64_50 (out_64 vdd norout64_50 vdd vss PBulkLine NBulkLine) twonor
//nor_64_51 (out_64 vdd norout64_51 vdd vss PBulkLine NBulkLine) twonor
//nor_64_52 (out_64 vdd norout64_52 vdd vss PBulkLine NBulkLine) twonor
//nor_64_53 (out_64 vdd norout64_53 vdd vss PBulkLine NBulkLine) twonor
//nor_64_54 (out_64 vdd norout64_54 vdd vss PBulkLine NBulkLine) twonor
//nor_64_55 (out_64 vdd norout64_55 vdd vss PBulkLine NBulkLine) twonor
//nor_64_56 (out_64 vdd norout64_56 vdd vss PBulkLine NBulkLine) twonor
//nor_64_57 (out_64 vdd norout64_57 vdd vss PBulkLine NBulkLine) twonor
//nor_64_58 (out_64 vdd norout64_58 vdd vss PBulkLine NBulkLine) twonor
//nor_64_59 (out_64 vdd norout64_59 vdd vss PBulkLine NBulkLine) twonor
//nor_64_60 (out_64 vdd norout64_60 vdd vss PBulkLine NBulkLine) twonor
//nor_64_61 (out_64 vdd norout64_61 vdd vss PBulkLine NBulkLine) twonor
//nor_64_62 (out_64 vdd norout64_62 vdd vss PBulkLine NBulkLine) twonor
//nor_64_63 (out_64 vdd norout64_63 vdd vss PBulkLine NBulkLine) twonor
//nor_64_64 (out_64 vdd norout64_64 vdd vss PBulkLine NBulkLine) twonor
cPar_64 out_64 vss capacitor c=1.152e-14
xbuffer_128 (vdd vss vss vdd in out_128) buffer_INVNOR_onehundredtwentyeight
//nor_128_1 (out_128 vdd norout128_1 vdd vss PBulkLine NBulkLine) twonor
//nor_128_2 (out_128 vdd norout128_2 vdd vss PBulkLine NBulkLine) twonor
//nor_128_3 (out_128 vdd norout128_3 vdd vss PBulkLine NBulkLine) twonor
//nor_128_4 (out_128 vdd norout128_4 vdd vss PBulkLine NBulkLine) twonor
//nor_128_5 (out_128 vdd norout128_5 vdd vss PBulkLine NBulkLine) twonor
//nor_128_6 (out_128 vdd norout128_6 vdd vss PBulkLine NBulkLine) twonor
//nor_128_7 (out_128 vdd norout128_7 vdd vss PBulkLine NBulkLine) twonor
//nor_128_8 (out_128 vdd norout128_8 vdd vss PBulkLine NBulkLine) twonor
//nor_128_9 (out_128 vdd norout128_9 vdd vss PBulkLine NBulkLine) twonor
//nor_128_10 (out_128 vdd norout128_10 vdd vss PBulkLine NBulkLine) twonor
//nor_128_11 (out_128 vdd norout128_11 vdd vss PBulkLine NBulkLine) twonor
//nor_128_12 (out_128 vdd norout128_12 vdd vss PBulkLine NBulkLine) twonor
//nor_128_13 (out_128 vdd norout128_13 vdd vss PBulkLine NBulkLine) twonor
//nor_128_14 (out_128 vdd norout128_14 vdd vss PBulkLine NBulkLine) twonor
//nor_128_15 (out_128 vdd norout128_15 vdd vss PBulkLine NBulkLine) twonor
//nor_128_16 (out_128 vdd norout128_16 vdd vss PBulkLine NBulkLine) twonor
//nor_128_17 (out_128 vdd norout128_17 vdd vss PBulkLine NBulkLine) twonor
//nor_128_18 (out_128 vdd norout128_18 vdd vss PBulkLine NBulkLine) twonor
//nor_128_19 (out_128 vdd norout128_19 vdd vss PBulkLine NBulkLine) twonor
//nor_128_20 (out_128 vdd norout128_20 vdd vss PBulkLine NBulkLine) twonor
//nor_128_21 (out_128 vdd norout128_21 vdd vss PBulkLine NBulkLine) twonor
//nor_128_22 (out_128 vdd norout128_22 vdd vss PBulkLine NBulkLine) twonor
//nor_128_23 (out_128 vdd norout128_23 vdd vss PBulkLine NBulkLine) twonor
//nor_128_24 (out_128 vdd norout128_24 vdd vss PBulkLine NBulkLine) twonor
//nor_128_25 (out_128 vdd norout128_25 vdd vss PBulkLine NBulkLine) twonor
//nor_128_26 (out_128 vdd norout128_26 vdd vss PBulkLine NBulkLine) twonor
//nor_128_27 (out_128 vdd norout128_27 vdd vss PBulkLine NBulkLine) twonor
//nor_128_28 (out_128 vdd norout128_28 vdd vss PBulkLine NBulkLine) twonor
//nor_128_29 (out_128 vdd norout128_29 vdd vss PBulkLine NBulkLine) twonor
//nor_128_30 (out_128 vdd norout128_30 vdd vss PBulkLine NBulkLine) twonor
//nor_128_31 (out_128 vdd norout128_31 vdd vss PBulkLine NBulkLine) twonor
//nor_128_32 (out_128 vdd norout128_32 vdd vss PBulkLine NBulkLine) twonor
//nor_128_33 (out_128 vdd norout128_33 vdd vss PBulkLine NBulkLine) twonor
//nor_128_34 (out_128 vdd norout128_34 vdd vss PBulkLine NBulkLine) twonor
//nor_128_35 (out_128 vdd norout128_35 vdd vss PBulkLine NBulkLine) twonor
//nor_128_36 (out_128 vdd norout128_36 vdd vss PBulkLine NBulkLine) twonor
//nor_128_37 (out_128 vdd norout128_37 vdd vss PBulkLine NBulkLine) twonor
//nor_128_38 (out_128 vdd norout128_38 vdd vss PBulkLine NBulkLine) twonor
//nor_128_39 (out_128 vdd norout128_39 vdd vss PBulkLine NBulkLine) twonor
//nor_128_40 (out_128 vdd norout128_40 vdd vss PBulkLine NBulkLine) twonor
//nor_128_41 (out_128 vdd norout128_41 vdd vss PBulkLine NBulkLine) twonor
//nor_128_42 (out_128 vdd norout128_42 vdd vss PBulkLine NBulkLine) twonor
//nor_128_43 (out_128 vdd norout128_43 vdd vss PBulkLine NBulkLine) twonor
//nor_128_44 (out_128 vdd norout128_44 vdd vss PBulkLine NBulkLine) twonor
//nor_128_45 (out_128 vdd norout128_45 vdd vss PBulkLine NBulkLine) twonor
//nor_128_46 (out_128 vdd norout128_46 vdd vss PBulkLine NBulkLine) twonor
//nor_128_47 (out_128 vdd norout128_47 vdd vss PBulkLine NBulkLine) twonor
//nor_128_48 (out_128 vdd norout128_48 vdd vss PBulkLine NBulkLine) twonor
//nor_128_49 (out_128 vdd norout128_49 vdd vss PBulkLine NBulkLine) twonor
//nor_128_50 (out_128 vdd norout128_50 vdd vss PBulkLine NBulkLine) twonor
//nor_128_51 (out_128 vdd norout128_51 vdd vss PBulkLine NBulkLine) twonor
//nor_128_52 (out_128 vdd norout128_52 vdd vss PBulkLine NBulkLine) twonor
//nor_128_53 (out_128 vdd norout128_53 vdd vss PBulkLine NBulkLine) twonor
//nor_128_54 (out_128 vdd norout128_54 vdd vss PBulkLine NBulkLine) twonor
//nor_128_55 (out_128 vdd norout128_55 vdd vss PBulkLine NBulkLine) twonor
//nor_128_56 (out_128 vdd norout128_56 vdd vss PBulkLine NBulkLine) twonor
//nor_128_57 (out_128 vdd norout128_57 vdd vss PBulkLine NBulkLine) twonor
//nor_128_58 (out_128 vdd norout128_58 vdd vss PBulkLine NBulkLine) twonor
//nor_128_59 (out_128 vdd norout128_59 vdd vss PBulkLine NBulkLine) twonor
//nor_128_60 (out_128 vdd norout128_60 vdd vss PBulkLine NBulkLine) twonor
//nor_128_61 (out_128 vdd norout128_61 vdd vss PBulkLine NBulkLine) twonor
//nor_128_62 (out_128 vdd norout128_62 vdd vss PBulkLine NBulkLine) twonor
//nor_128_63 (out_128 vdd norout128_63 vdd vss PBulkLine NBulkLine) twonor
//nor_128_64 (out_128 vdd norout128_64 vdd vss PBulkLine NBulkLine) twonor
//nor_128_65 (out_128 vdd norout128_65 vdd vss PBulkLine NBulkLine) twonor
//nor_128_66 (out_128 vdd norout128_66 vdd vss PBulkLine NBulkLine) twonor
//nor_128_67 (out_128 vdd norout128_67 vdd vss PBulkLine NBulkLine) twonor
//nor_128_68 (out_128 vdd norout128_68 vdd vss PBulkLine NBulkLine) twonor
//nor_128_69 (out_128 vdd norout128_69 vdd vss PBulkLine NBulkLine) twonor
//nor_128_70 (out_128 vdd norout128_70 vdd vss PBulkLine NBulkLine) twonor
//nor_128_71 (out_128 vdd norout128_71 vdd vss PBulkLine NBulkLine) twonor
//nor_128_72 (out_128 vdd norout128_72 vdd vss PBulkLine NBulkLine) twonor
//nor_128_73 (out_128 vdd norout128_73 vdd vss PBulkLine NBulkLine) twonor
//nor_128_74 (out_128 vdd norout128_74 vdd vss PBulkLine NBulkLine) twonor
//nor_128_75 (out_128 vdd norout128_75 vdd vss PBulkLine NBulkLine) twonor
//nor_128_76 (out_128 vdd norout128_76 vdd vss PBulkLine NBulkLine) twonor
//nor_128_77 (out_128 vdd norout128_77 vdd vss PBulkLine NBulkLine) twonor
//nor_128_78 (out_128 vdd norout128_78 vdd vss PBulkLine NBulkLine) twonor
//nor_128_79 (out_128 vdd norout128_79 vdd vss PBulkLine NBulkLine) twonor
//nor_128_80 (out_128 vdd norout128_80 vdd vss PBulkLine NBulkLine) twonor
//nor_128_81 (out_128 vdd norout128_81 vdd vss PBulkLine NBulkLine) twonor
//nor_128_82 (out_128 vdd norout128_82 vdd vss PBulkLine NBulkLine) twonor
//nor_128_83 (out_128 vdd norout128_83 vdd vss PBulkLine NBulkLine) twonor
//nor_128_84 (out_128 vdd norout128_84 vdd vss PBulkLine NBulkLine) twonor
//nor_128_85 (out_128 vdd norout128_85 vdd vss PBulkLine NBulkLine) twonor
//nor_128_86 (out_128 vdd norout128_86 vdd vss PBulkLine NBulkLine) twonor
//nor_128_87 (out_128 vdd norout128_87 vdd vss PBulkLine NBulkLine) twonor
//nor_128_88 (out_128 vdd norout128_88 vdd vss PBulkLine NBulkLine) twonor
//nor_128_89 (out_128 vdd norout128_89 vdd vss PBulkLine NBulkLine) twonor
//nor_128_90 (out_128 vdd norout128_90 vdd vss PBulkLine NBulkLine) twonor
//nor_128_91 (out_128 vdd norout128_91 vdd vss PBulkLine NBulkLine) twonor
//nor_128_92 (out_128 vdd norout128_92 vdd vss PBulkLine NBulkLine) twonor
//nor_128_93 (out_128 vdd norout128_93 vdd vss PBulkLine NBulkLine) twonor
//nor_128_94 (out_128 vdd norout128_94 vdd vss PBulkLine NBulkLine) twonor
//nor_128_95 (out_128 vdd norout128_95 vdd vss PBulkLine NBulkLine) twonor
//nor_128_96 (out_128 vdd norout128_96 vdd vss PBulkLine NBulkLine) twonor
//nor_128_97 (out_128 vdd norout128_97 vdd vss PBulkLine NBulkLine) twonor
//nor_128_98 (out_128 vdd norout128_98 vdd vss PBulkLine NBulkLine) twonor
//nor_128_99 (out_128 vdd norout128_99 vdd vss PBulkLine NBulkLine) twonor
//nor_128_100 (out_128 vdd norout128_100 vdd vss PBulkLine NBulkLine) twonor
//nor_128_101 (out_128 vdd norout128_101 vdd vss PBulkLine NBulkLine) twonor
//nor_128_102 (out_128 vdd norout128_102 vdd vss PBulkLine NBulkLine) twonor
//nor_128_103 (out_128 vdd norout128_103 vdd vss PBulkLine NBulkLine) twonor
//nor_128_104 (out_128 vdd norout128_104 vdd vss PBulkLine NBulkLine) twonor
//nor_128_105 (out_128 vdd norout128_105 vdd vss PBulkLine NBulkLine) twonor
//nor_128_106 (out_128 vdd norout128_106 vdd vss PBulkLine NBulkLine) twonor
//nor_128_107 (out_128 vdd norout128_107 vdd vss PBulkLine NBulkLine) twonor
//nor_128_108 (out_128 vdd norout128_108 vdd vss PBulkLine NBulkLine) twonor
//nor_128_109 (out_128 vdd norout128_109 vdd vss PBulkLine NBulkLine) twonor
//nor_128_110 (out_128 vdd norout128_110 vdd vss PBulkLine NBulkLine) twonor
//nor_128_111 (out_128 vdd norout128_111 vdd vss PBulkLine NBulkLine) twonor
//nor_128_112 (out_128 vdd norout128_112 vdd vss PBulkLine NBulkLine) twonor
//nor_128_113 (out_128 vdd norout128_113 vdd vss PBulkLine NBulkLine) twonor
//nor_128_114 (out_128 vdd norout128_114 vdd vss PBulkLine NBulkLine) twonor
//nor_128_115 (out_128 vdd norout128_115 vdd vss PBulkLine NBulkLine) twonor
//nor_128_116 (out_128 vdd norout128_116 vdd vss PBulkLine NBulkLine) twonor
//nor_128_117 (out_128 vdd norout128_117 vdd vss PBulkLine NBulkLine) twonor
//nor_128_118 (out_128 vdd norout128_118 vdd vss PBulkLine NBulkLine) twonor
//nor_128_119 (out_128 vdd norout128_119 vdd vss PBulkLine NBulkLine) twonor
//nor_128_120 (out_128 vdd norout128_120 vdd vss PBulkLine NBulkLine) twonor
//nor_128_121 (out_128 vdd norout128_121 vdd vss PBulkLine NBulkLine) twonor
//nor_128_122 (out_128 vdd norout128_122 vdd vss PBulkLine NBulkLine) twonor
//nor_128_123 (out_128 vdd norout128_123 vdd vss PBulkLine NBulkLine) twonor
//nor_128_124 (out_128 vdd norout128_124 vdd vss PBulkLine NBulkLine) twonor
//nor_128_125 (out_128 vdd norout128_125 vdd vss PBulkLine NBulkLine) twonor
//nor_128_126 (out_128 vdd norout128_126 vdd vss PBulkLine NBulkLine) twonor
//nor_128_127 (out_128 vdd norout128_127 vdd vss PBulkLine NBulkLine) twonor
//nor_128_128 (out_128 vdd norout128_128 vdd vss PBulkLine NBulkLine) twonor
cPar_128 out_128 vss capacitor c=2.304e-14
xbuffer_256 (vdd vss vss vdd in out_256) buffer_INVNOR_twohundredfiftysix
//nor_256_1 (out_256 vdd norout256_1 vdd vss PBulkLine NBulkLine) twonor
//nor_256_2 (out_256 vdd norout256_2 vdd vss PBulkLine NBulkLine) twonor
//nor_256_3 (out_256 vdd norout256_3 vdd vss PBulkLine NBulkLine) twonor
//nor_256_4 (out_256 vdd norout256_4 vdd vss PBulkLine NBulkLine) twonor
//nor_256_5 (out_256 vdd norout256_5 vdd vss PBulkLine NBulkLine) twonor
//nor_256_6 (out_256 vdd norout256_6 vdd vss PBulkLine NBulkLine) twonor
//nor_256_7 (out_256 vdd norout256_7 vdd vss PBulkLine NBulkLine) twonor
//nor_256_8 (out_256 vdd norout256_8 vdd vss PBulkLine NBulkLine) twonor
//nor_256_9 (out_256 vdd norout256_9 vdd vss PBulkLine NBulkLine) twonor
//nor_256_10 (out_256 vdd norout256_10 vdd vss PBulkLine NBulkLine) twonor
//nor_256_11 (out_256 vdd norout256_11 vdd vss PBulkLine NBulkLine) twonor
//nor_256_12 (out_256 vdd norout256_12 vdd vss PBulkLine NBulkLine) twonor
//nor_256_13 (out_256 vdd norout256_13 vdd vss PBulkLine NBulkLine) twonor
//nor_256_14 (out_256 vdd norout256_14 vdd vss PBulkLine NBulkLine) twonor
//nor_256_15 (out_256 vdd norout256_15 vdd vss PBulkLine NBulkLine) twonor
//nor_256_16 (out_256 vdd norout256_16 vdd vss PBulkLine NBulkLine) twonor
//nor_256_17 (out_256 vdd norout256_17 vdd vss PBulkLine NBulkLine) twonor
//nor_256_18 (out_256 vdd norout256_18 vdd vss PBulkLine NBulkLine) twonor
//nor_256_19 (out_256 vdd norout256_19 vdd vss PBulkLine NBulkLine) twonor
//nor_256_20 (out_256 vdd norout256_20 vdd vss PBulkLine NBulkLine) twonor
//nor_256_21 (out_256 vdd norout256_21 vdd vss PBulkLine NBulkLine) twonor
//nor_256_22 (out_256 vdd norout256_22 vdd vss PBulkLine NBulkLine) twonor
//nor_256_23 (out_256 vdd norout256_23 vdd vss PBulkLine NBulkLine) twonor
//nor_256_24 (out_256 vdd norout256_24 vdd vss PBulkLine NBulkLine) twonor
//nor_256_25 (out_256 vdd norout256_25 vdd vss PBulkLine NBulkLine) twonor
//nor_256_26 (out_256 vdd norout256_26 vdd vss PBulkLine NBulkLine) twonor
//nor_256_27 (out_256 vdd norout256_27 vdd vss PBulkLine NBulkLine) twonor
//nor_256_28 (out_256 vdd norout256_28 vdd vss PBulkLine NBulkLine) twonor
//nor_256_29 (out_256 vdd norout256_29 vdd vss PBulkLine NBulkLine) twonor
//nor_256_30 (out_256 vdd norout256_30 vdd vss PBulkLine NBulkLine) twonor
//nor_256_31 (out_256 vdd norout256_31 vdd vss PBulkLine NBulkLine) twonor
//nor_256_32 (out_256 vdd norout256_32 vdd vss PBulkLine NBulkLine) twonor
//nor_256_33 (out_256 vdd norout256_33 vdd vss PBulkLine NBulkLine) twonor
//nor_256_34 (out_256 vdd norout256_34 vdd vss PBulkLine NBulkLine) twonor
//nor_256_35 (out_256 vdd norout256_35 vdd vss PBulkLine NBulkLine) twonor
//nor_256_36 (out_256 vdd norout256_36 vdd vss PBulkLine NBulkLine) twonor
//nor_256_37 (out_256 vdd norout256_37 vdd vss PBulkLine NBulkLine) twonor
//nor_256_38 (out_256 vdd norout256_38 vdd vss PBulkLine NBulkLine) twonor
//nor_256_39 (out_256 vdd norout256_39 vdd vss PBulkLine NBulkLine) twonor
//nor_256_40 (out_256 vdd norout256_40 vdd vss PBulkLine NBulkLine) twonor
//nor_256_41 (out_256 vdd norout256_41 vdd vss PBulkLine NBulkLine) twonor
//nor_256_42 (out_256 vdd norout256_42 vdd vss PBulkLine NBulkLine) twonor
//nor_256_43 (out_256 vdd norout256_43 vdd vss PBulkLine NBulkLine) twonor
//nor_256_44 (out_256 vdd norout256_44 vdd vss PBulkLine NBulkLine) twonor
//nor_256_45 (out_256 vdd norout256_45 vdd vss PBulkLine NBulkLine) twonor
//nor_256_46 (out_256 vdd norout256_46 vdd vss PBulkLine NBulkLine) twonor
//nor_256_47 (out_256 vdd norout256_47 vdd vss PBulkLine NBulkLine) twonor
//nor_256_48 (out_256 vdd norout256_48 vdd vss PBulkLine NBulkLine) twonor
//nor_256_49 (out_256 vdd norout256_49 vdd vss PBulkLine NBulkLine) twonor
//nor_256_50 (out_256 vdd norout256_50 vdd vss PBulkLine NBulkLine) twonor
//nor_256_51 (out_256 vdd norout256_51 vdd vss PBulkLine NBulkLine) twonor
//nor_256_52 (out_256 vdd norout256_52 vdd vss PBulkLine NBulkLine) twonor
//nor_256_53 (out_256 vdd norout256_53 vdd vss PBulkLine NBulkLine) twonor
//nor_256_54 (out_256 vdd norout256_54 vdd vss PBulkLine NBulkLine) twonor
//nor_256_55 (out_256 vdd norout256_55 vdd vss PBulkLine NBulkLine) twonor
//nor_256_56 (out_256 vdd norout256_56 vdd vss PBulkLine NBulkLine) twonor
//nor_256_57 (out_256 vdd norout256_57 vdd vss PBulkLine NBulkLine) twonor
//nor_256_58 (out_256 vdd norout256_58 vdd vss PBulkLine NBulkLine) twonor
//nor_256_59 (out_256 vdd norout256_59 vdd vss PBulkLine NBulkLine) twonor
//nor_256_60 (out_256 vdd norout256_60 vdd vss PBulkLine NBulkLine) twonor
//nor_256_61 (out_256 vdd norout256_61 vdd vss PBulkLine NBulkLine) twonor
//nor_256_62 (out_256 vdd norout256_62 vdd vss PBulkLine NBulkLine) twonor
//nor_256_63 (out_256 vdd norout256_63 vdd vss PBulkLine NBulkLine) twonor
//nor_256_64 (out_256 vdd norout256_64 vdd vss PBulkLine NBulkLine) twonor
//nor_256_65 (out_256 vdd norout256_65 vdd vss PBulkLine NBulkLine) twonor
//nor_256_66 (out_256 vdd norout256_66 vdd vss PBulkLine NBulkLine) twonor
//nor_256_67 (out_256 vdd norout256_67 vdd vss PBulkLine NBulkLine) twonor
//nor_256_68 (out_256 vdd norout256_68 vdd vss PBulkLine NBulkLine) twonor
//nor_256_69 (out_256 vdd norout256_69 vdd vss PBulkLine NBulkLine) twonor
//nor_256_70 (out_256 vdd norout256_70 vdd vss PBulkLine NBulkLine) twonor
//nor_256_71 (out_256 vdd norout256_71 vdd vss PBulkLine NBulkLine) twonor
//nor_256_72 (out_256 vdd norout256_72 vdd vss PBulkLine NBulkLine) twonor
//nor_256_73 (out_256 vdd norout256_73 vdd vss PBulkLine NBulkLine) twonor
//nor_256_74 (out_256 vdd norout256_74 vdd vss PBulkLine NBulkLine) twonor
//nor_256_75 (out_256 vdd norout256_75 vdd vss PBulkLine NBulkLine) twonor
//nor_256_76 (out_256 vdd norout256_76 vdd vss PBulkLine NBulkLine) twonor
//nor_256_77 (out_256 vdd norout256_77 vdd vss PBulkLine NBulkLine) twonor
//nor_256_78 (out_256 vdd norout256_78 vdd vss PBulkLine NBulkLine) twonor
//nor_256_79 (out_256 vdd norout256_79 vdd vss PBulkLine NBulkLine) twonor
//nor_256_80 (out_256 vdd norout256_80 vdd vss PBulkLine NBulkLine) twonor
//nor_256_81 (out_256 vdd norout256_81 vdd vss PBulkLine NBulkLine) twonor
//nor_256_82 (out_256 vdd norout256_82 vdd vss PBulkLine NBulkLine) twonor
//nor_256_83 (out_256 vdd norout256_83 vdd vss PBulkLine NBulkLine) twonor
//nor_256_84 (out_256 vdd norout256_84 vdd vss PBulkLine NBulkLine) twonor
//nor_256_85 (out_256 vdd norout256_85 vdd vss PBulkLine NBulkLine) twonor
//nor_256_86 (out_256 vdd norout256_86 vdd vss PBulkLine NBulkLine) twonor
//nor_256_87 (out_256 vdd norout256_87 vdd vss PBulkLine NBulkLine) twonor
//nor_256_88 (out_256 vdd norout256_88 vdd vss PBulkLine NBulkLine) twonor
//nor_256_89 (out_256 vdd norout256_89 vdd vss PBulkLine NBulkLine) twonor
//nor_256_90 (out_256 vdd norout256_90 vdd vss PBulkLine NBulkLine) twonor
//nor_256_91 (out_256 vdd norout256_91 vdd vss PBulkLine NBulkLine) twonor
//nor_256_92 (out_256 vdd norout256_92 vdd vss PBulkLine NBulkLine) twonor
//nor_256_93 (out_256 vdd norout256_93 vdd vss PBulkLine NBulkLine) twonor
//nor_256_94 (out_256 vdd norout256_94 vdd vss PBulkLine NBulkLine) twonor
//nor_256_95 (out_256 vdd norout256_95 vdd vss PBulkLine NBulkLine) twonor
//nor_256_96 (out_256 vdd norout256_96 vdd vss PBulkLine NBulkLine) twonor
//nor_256_97 (out_256 vdd norout256_97 vdd vss PBulkLine NBulkLine) twonor
//nor_256_98 (out_256 vdd norout256_98 vdd vss PBulkLine NBulkLine) twonor
//nor_256_99 (out_256 vdd norout256_99 vdd vss PBulkLine NBulkLine) twonor